; Filename: ../Network_Originals/Hanoi_CMH.inp
; WNTR: 0.4.0
; Created: 2022-11-16 12:31:35
[TITLE]

[JUNCTIONS]
;ID                      Elevation       Demand Pattern                 
 2                                 30          247.22 Pattern_2                  ;
 3                                 30          236.11 Pattern_3                  ;
 4                                 30           36.11 Pattern_4                  ;
 5                                 30          201.39 Pattern_5                  ;
 6                                 30          279.17 Pattern_6                  ;
 7                                 30             375 Pattern_7                  ;
 8                                 30          152.78 Pattern_8                  ;
 9                                 30          145.83 Pattern_9                  ;
 10                                30          145.83 Pattern_10                 ;
 11                                30          138.89 Pattern_11                 ;
 12                                30          155.56 Pattern_12                 ;
 13                                30          261.11 Pattern_13                 ;
 14                                30          170.83 Pattern_14                 ;
 15                                30           77.78 Pattern_15                 ;
 16                                30           86.11 Pattern_16                 ;
 17                                30          240.28 Pattern_17                 ;
 18                                30          373.61 Pattern_18                 ;
 19                                30           16.67 Pattern_19                 ;
 20                                30          354.17 Pattern_20                 ;
 21                                30          258.33 Pattern_21                 ;
 22                                30          134.72 Pattern_22                 ;
 23                                30          290.28 Pattern_23                 ;
 24                                30          227.78 Pattern_24                 ;
 25                                30           47.22 Pattern_25                 ;
 26                                30             250 Pattern_26                 ;
 27                                30          102.78 Pattern_27                 ;
 28                                30           80.56 Pattern_28                 ;
 29                                30             100 Pattern_29                 ;
 30                                30             100 Pattern_30                 ;
 31                                30           29.17 Pattern_31                 ;
 32                                30          223.61 Pattern_32                 ;

[RESERVOIRS]
;ID                                   Head                  Pattern
 1                                100                            ;

[TANKS]
;ID                              Elevation           Init Level            Min Level            Max Level             Diameter           Min Volume Volume Curve         Overflow            

[PIPES]
;ID                   Node1                Node2                              Length             Diameter            Roughness           Minor Loss               Status
 1                    1                    2                                100            1016             130               0                 Open   ;
 2                    2                    3                               1350            1016             130               0                 Open   ;
 3                    3                    4                                900            1016             130               0                 Open   ;
 4                    4                    5                               1150            1016             130               0                 Open   ;
 5                    5                    6                               1450            1016             130               0                 Open   ;
 6                    6                    7                                450            1016             130               0                 Open   ;
 7                    7                    8                                850            1016             130               0                 Open   ;
 8                    8                    9                                850            1016             130               0                 Open   ;
 9                    9                    10                               800            1016             130               0                 Open   ;
 10                   10                   11                               950             762             130               0                 Open   ;
 11                   11                   12                              1200             762             130               0                 Open   ;
 12                   12                   13                              3500           609.6             130               0                 Open   ;
 13                   10                   14                               800           406.4             130               0                 Open   ;
 14                   14                   15                               500           406.4             130               0                 Open   ;
 15                   15                   16                               550           304.8             130               0                 Open   ;
 16                   17                   16                              2730           406.4             130               0                 Open   ;
 17                   17                   18                              1750             508             130               0                 Open   ;
 18                   18                   19                               800           609.6             130               0                 Open   ;
 19                   19                   3                                400           609.6             130               0                 Open   ;
 20                   3                    20                              2200            1016             130               0                 Open   ;
 21                   20                   21                              1500             508             130               0                 Open   ;
 22                   21                   22                               500           304.8             130               0                 Open   ;
 23                   20                   23                              2650            1016             130               0                 Open   ;
 24                   23                   24                              1230             762             130               0                 Open   ;
 25                   24                   25                              1300             762             130               0                 Open   ;
 26                   26                   25                               850             508             130               0                 Open   ;
 27                   27                   26                               300           304.8             130               0                 Open   ;
 28                   16                   27                               750           304.8             130               0                 Open   ;
 29                   23                   28                              1500           406.4             130               0                 Open   ;
 30                   28                   29                              2000           406.4             130               0                 Open   ;
 31                   29                   30                              1600           304.8             130               0                 Open   ;
 32                   30                   31                               150           304.8             130               0                 Open   ;
 33                   32                   31                               860           406.4             130               0                 Open   ;
 34                   25                   32                               950             508             130               0                 Open   ;

[PUMPS]
;ID                   Node1                Node2                Properties          

[VALVES]
;ID                   Node1                Node2                            Diameter Type              Setting           Minor Loss

[TAGS]
;type      name       tag       

[DEMANDS]
;ID        Demand     Pattern   

[STATUS]
;ID        Setting   

[PATTERNS]
;ID        Multipliers

Pattern_2 0.814579 0.726295 0.663767 0.672803 0.602776 0.586105
Pattern_2 0.540183 0.559895 0.568962 0.549611 0.600719 0.638156
Pattern_2 0.753145 0.845301 0.815679 0.956671 1.012412 1.186633
Pattern_2 1.108327 1.069572 1.215861 1.256523 1.327556 1.318380
Pattern_2 1.242664 1.274972 1.163302 1.254064 1.245316 1.206281
Pattern_2 1.140385 1.218447 1.160853 1.054210 1.110754 1.163879
Pattern_2 1.279713 1.196255 1.095796 1.215027 1.168855 1.230316
Pattern_2 1.059744 1.099964 1.119935 1.004113 0.939212 0.877501
Pattern_2 0.714338 0.675744 0.625137 0.540552 0.531507 0.492701
Pattern_2 0.577126 0.520333 0.613227 0.614149 0.776884 0.868407
Pattern_2 0.938183 1.138041 1.166571 1.366165 1.412575 1.463344
Pattern_2 1.602552 1.636697 1.635951 1.527136 1.611573 1.640400
Pattern_2 1.690547 1.531874 1.539357 1.163501 1.174804 1.197778
Pattern_2 1.167777 1.087477 1.115568 1.150130 1.154322 1.220473
Pattern_2 1.129885 1.140180 1.365053 1.236106 1.237239 1.299612
Pattern_2 1.245245 1.261401 1.215200 1.065722 0.966395 0.872873
Pattern_2 0.798301 0.748660 0.649611 0.617793 0.593196 0.549809
Pattern_2 0.585197 0.558251 0.594820 0.659127 0.779723 0.869308
Pattern_2 1.012228 1.133283 1.211246 1.154322 1.231212 1.393390
Pattern_2 1.489650 1.439267 1.433915 1.556609 1.517318 1.496501
Pattern_2 1.454407 1.467288 1.349341 1.272511 1.130887 1.248831
Pattern_2 1.139794 1.094512 1.189390 1.199770 1.178935 1.288778
Pattern_2 1.191129 1.397408 1.398146 1.346725 1.297888 1.452065
Pattern_2 1.243901 1.273990 1.100058 1.101995 0.982865 0.890483
Pattern_2 0.818083 0.720918 0.640531 0.548553 0.561906 0.564724
Pattern_2 0.554237 0.588096 0.617118 0.747591 0.806211 0.935213
Pattern_2 0.945348 1.189371 1.350240 1.338027 1.415025 1.500498
Pattern_2 1.611416 1.584835 1.556456 1.507649 1.541068 1.470311
Pattern_2 1.460411 1.445280 1.473780 1.374605 1.275830 1.292014
Pattern_2 1.225104 1.197818 1.274304 1.229224 1.278359 1.183236
Pattern_2 1.232123 1.312865 1.115330 1.301684 1.397304 1.321925
Pattern_2 1.263154 1.179189 1.146763 1.023837 0.883283 0.934323
Pattern_2 0.821711 0.743231 0.617303 0.577576 0.542302 0.506720
Pattern_2 0.529542 0.586154 0.619827 0.776097 0.784389 0.942664
Pattern_2 0.999238 1.105619 1.218558 1.276571 1.374830 1.511515
Pattern_2 1.562069 1.568702 1.477046 1.577552 1.473559 1.426277
Pattern_2 1.371311 1.367739 1.328298 1.308247 1.313446 1.210650
Pattern_2 1.284955 1.157795 1.226455 1.234600 1.267179 1.203540
Pattern_2 1.108022 1.374874 1.224805 1.271445 1.304342 1.403319
Pattern_2 1.296122 1.230106 1.175531 1.086631 1.073085 0.968546
Pattern_2 0.912423 0.787329 0.584167 0.572408 0.579429 0.593663
Pattern_2 0.579996 0.610495 0.729835 0.821427 0.926439 1.018959
Pattern_2 1.197613 1.253197 1.425103 1.502898 1.656362 1.785799
Pattern_2 1.791734 1.506779 1.635533 1.730551 1.578451 1.608562
Pattern_2 1.535213 1.470698 1.324111 1.352024 1.286127 1.337915
Pattern_2 1.341412 1.268475 1.169028 1.241080 1.311415 1.316929
Pattern_2 1.330917 1.350067 1.317448 1.345410 1.311691 1.271232
Pattern_2 1.270414 1.262231 1.163145 1.055925 0.988058 0.952553
Pattern_2 0.858105 0.888078 0.726786 0.718767 0.579354 0.581475
Pattern_2 0.550128 0.589206 0.589934 0.671818 0.678881 0.739012
Pattern_2 0.867982 0.980547 1.036623 1.146785 1.073663 1.304777
Pattern_2 1.304907 1.339384 1.349716 1.364580 1.600263 1.446938
Pattern_2 1.497301 1.319616 1.346376 1.442778 1.386447 1.305674
Pattern_2 1.346469 1.347569 1.410459 1.278186 1.286974 1.124516
Pattern_2 1.371634 1.247489 1.254074 1.163245 1.219485 1.156471
Pattern_2 1.151727 1.042843 1.002457 0.819589 0.873866 0.913320
Pattern_2 0.766442 0.729388 0.686535 0.686273 0.612049 0.603113
Pattern_2 0.597086 0.577820 0.604086 0.602593 0.615194 0.711779
Pattern_2 0.685083 0.714226 0.816038 0.858206 1.004553 1.124543
Pattern_2 1.142095 1.253290 1.338069 1.231934 1.403671 1.398584
Pattern_2 1.352257 1.359939 1.277821 1.283171 1.358006 1.179076
Pattern_2 1.236139 1.214279 1.220229 1.182358 1.219091 1.124759
Pattern_2 1.235707 1.185855 1.157845 1.205037 1.113499 1.129958
Pattern_2 1.159033 1.106006 0.988079 1.066943 1.009173 0.868483
Pattern_2 0.735380 0.689203 0.560673 0.572684 0.598436 0.532790
Pattern_2 0.491131 0.548253 0.590358 0.632552 0.773107 0.841540
Pattern_2 0.976872 1.049443 1.186216 1.472162 1.493276 1.409323
Pattern_2 1.529268 1.526578 1.400639 1.601319 1.669430 1.478209
Pattern_2 1.498315 1.477979 1.356396 1.371440 1.259982 1.224202
Pattern_2 1.053208 1.211236 1.063780 1.116533 1.159392 1.171288
Pattern_2 1.254573 1.265890 1.267214 1.406929 1.351590 1.357671
Pattern_2 1.302660 1.214818 1.133412 1.152057 0.987624 0.843862
Pattern_2 0.739050 0.685936 0.646802 0.612621 0.531219 0.527718
Pattern_2 0.552086 0.602165 0.617782 0.674136 0.804870 0.897081
Pattern_2 0.996475 1.095767 1.166396 1.230936 1.425477 1.509559
Pattern_2 1.451821 1.561345 1.419863 1.585588 1.499217 1.499577
Pattern_2 1.332202 1.332397 1.306154 1.381084 1.227264 1.255750
Pattern_2 1.235968 1.188408 1.316310 1.124397 1.313631 1.174398
Pattern_2 1.292555 1.331175 1.279591 1.379274 1.339516 1.326271
Pattern_2 1.363695 1.289476 1.222125 1.226099 1.053596 0.895258
Pattern_2 0.826089 0.694753 0.668230 0.597153 0.549602 0.534139
Pattern_2 0.562629 0.644626 0.648364 0.740527 0.776615 0.992045
Pattern_2 1.068734 1.154807 1.265271 1.314482 1.561830 1.433266
Pattern_2 1.528476 1.497375 1.505324 1.663984 1.627208 1.506972
Pattern_2 1.475757 1.497877 1.379202 1.378989 1.289528 1.309497
Pattern_2 1.159477 1.306446 1.225027 1.142326 1.199257 1.254681
Pattern_2 1.205904 1.309733 1.380597 1.314954 1.301691 1.316239
Pattern_2 1.234790 1.308172 1.197575 1.117784 1.058697 0.886694
Pattern_2 0.811150 0.738447 0.618692 0.594968 0.513074 0.517716
Pattern_2 0.513286 0.568837 0.663539 0.768699 0.915840 0.976729
Pattern_2 0.980536 1.019575 1.147670 1.371629 1.353225 1.408088
Pattern_2 1.506806 1.469673 1.509193 1.482723 1.458393 1.319895
Pattern_2 1.396741 1.457753 1.415230 1.443981 1.365413 1.237375
Pattern_2 1.285326 1.256110 1.158426 1.201256 1.197459 1.354593
Pattern_2 1.382429 1.281806 1.295618 1.340462 1.384815 1.200767
Pattern_2 1.366195 1.369964 1.169667 1.245661 1.075650 0.928705
Pattern_2 0.810886 0.752066 0.677888 0.658552 0.534422 0.557288
Pattern_2 0.550054 0.607425 0.683611 0.873647 0.934302 0.912165
Pattern_2 1.169598 1.379934 1.316023 1.633437 1.573471 1.591555
Pattern_2 1.746069 1.752813 1.678114 1.722501 1.606331 1.613065
Pattern_2 1.672220 1.488521 1.559505 1.351700 1.301102 1.296090
Pattern_2 1.282202 1.227926 1.296170 1.255050 1.260041 1.293771
Pattern_2 1.321883 1.388780 1.328595 1.262610 1.338310 1.253934
Pattern_2 1.237133 1.225638 1.254305 1.205415 0.938132 0.995238
Pattern_2 0.867082 0.823405 0.737464 0.646522 0.662267 0.546626
Pattern_2 0.572904 0.632026 0.573739 0.625544 0.787924 0.739870
Pattern_2 0.911581 0.949809 1.051725 1.189416 1.227239 1.256885
Pattern_2 1.319517 1.293825 1.302959 1.479913 1.454385 1.375324
Pattern_2 1.477202 1.424050 1.307606 1.445534 1.280721 1.362163
Pattern_2 1.280433 1.202366 1.368318 1.303055 1.335129 1.215815
Pattern_2 1.344547 1.232070 1.307450 1.297334 1.377034 1.163263
Pattern_2 1.019837 1.082621 0.995654 1.000895 0.791598 0.895968
Pattern_2 0.818273

Pattern_3 0.745442 0.657465 0.563933 0.597843 0.548449 0.494826
Pattern_3 0.450107 0.491398 0.488561 0.477565 0.539825 0.573111
Pattern_3 0.649599 0.765179 0.860974 0.790455 0.948165 1.067389
Pattern_3 1.205984 1.261536 1.263172 1.292988 1.392701 1.465736
Pattern_3 1.383424 1.414670 1.521837 1.302191 1.387221 1.258655
Pattern_3 1.214897 1.144017 1.146381 1.080050 1.125952 1.271364
Pattern_3 1.208827 1.256717 1.131090 1.230258 1.187390 1.139870
Pattern_3 1.253173 1.103258 1.001909 0.944634 0.813140 0.749589
Pattern_3 0.673005 0.524830 0.511382 0.451209 0.389065 0.396856
Pattern_3 0.424823 0.432352 0.519549 0.556983 0.665197 0.761378
Pattern_3 0.965635 1.010668 1.168550 1.338449 1.406988 1.571336
Pattern_3 1.641870 1.616498 1.674381 1.683849 1.636844 1.690253
Pattern_3 1.661358 1.521913 1.495737 1.371307 1.197851 1.164258
Pattern_3 1.125595 1.165773 1.035304 1.155059 1.166069 1.153256
Pattern_3 1.228831 1.295753 1.316038 1.306321 1.329183 1.371538
Pattern_3 1.358718 1.297226 1.158709 1.112741 1.051056 0.872624
Pattern_3 0.757249 0.675826 0.542759 0.538325 0.434966 0.424215
Pattern_3 0.396689 0.481055 0.453353 0.632973 0.687813 0.788435
Pattern_3 0.949149 1.078162 1.160759 1.274767 1.395473 1.525718
Pattern_3 1.549385 1.686154 1.647538 1.666663 1.700439 1.539183
Pattern_3 1.555020 1.395647 1.478442 1.395389 1.309507 1.173666
Pattern_3 1.234187 1.195467 1.144028 1.104539 1.205230 1.176440
Pattern_3 1.298719 1.268185 1.446177 1.417315 1.417949 1.344773
Pattern_3 1.348129 1.266075 1.186041 1.043909 0.916912 0.820430
Pattern_3 0.735660 0.671672 0.532615 0.431293 0.422140 0.412067
Pattern_3 0.418499 0.457540 0.515721 0.636662 0.762837 0.861381
Pattern_3 1.032893 1.202897 1.355753 1.266283 1.411823 1.608399
Pattern_3 1.503057 1.691638 1.640528 1.782370 1.659242 1.647541
Pattern_3 1.468482 1.403174 1.355890 1.365598 1.278258 1.273087
Pattern_3 1.239745 1.277608 1.162167 1.296031 1.146454 1.273298
Pattern_3 1.305572 1.325874 1.460948 1.379817 1.305280 1.349281
Pattern_3 1.329247 1.213594 1.132866 1.097464 0.932591 0.880049
Pattern_3 0.760388 0.663468 0.571236 0.452381 0.426318 0.404718
Pattern_3 0.442344 0.460526 0.508614 0.661531 0.817259 0.816435
Pattern_3 0.976158 1.158845 1.218727 1.416173 1.443223 1.376484
Pattern_3 1.508502 1.664789 1.680797 1.676907 1.538246 1.520462
Pattern_3 1.402449 1.412838 1.286281 1.188056 1.292126 1.135682
Pattern_3 1.206032 1.241974 1.206654 1.364580 1.222320 1.114995
Pattern_3 1.370877 1.221527 1.412326 1.277705 1.605657 1.258184
Pattern_3 1.301358 1.220273 1.228561 1.115418 0.947470 0.887521
Pattern_3 0.785939 0.595957 0.602692 0.525324 0.469696 0.450300
Pattern_3 0.482199 0.514123 0.522426 0.750025 0.851204 1.068962
Pattern_3 1.139769 1.247439 1.468418 1.618934 1.811969 1.886174
Pattern_3 1.836205 1.866366 1.866449 1.725950 1.740650 1.653577
Pattern_3 1.623142 1.558521 1.434569 1.459232 1.252837 1.243829
Pattern_3 1.393404 1.182582 1.318434 1.360141 1.369940 1.261440
Pattern_3 1.297710 1.322996 1.368126 1.297957 1.245754 1.231823
Pattern_3 1.152514 1.199468 1.181835 1.005972 0.960493 0.899467
Pattern_3 0.858231 0.754251 0.686496 0.668393 0.533098 0.496751
Pattern_3 0.449905 0.487790 0.508778 0.540490 0.626801 0.725820
Pattern_3 0.745236 0.949115 1.038674 1.142124 1.232105 1.326086
Pattern_3 1.371220 1.545354 1.481859 1.522430 1.549545 1.656556
Pattern_3 1.441678 1.366208 1.362847 1.417268 1.329625 1.253461
Pattern_3 1.339923 1.250169 1.299330 1.352894 1.404521 1.275505
Pattern_3 1.255108 1.282551 1.181120 1.136549 1.217372 1.147415
Pattern_3 1.085324 0.983426 1.003520 0.991983 0.796544 0.768662
Pattern_3 0.636463 0.679914 0.554851 0.579326 0.547231 0.493145
Pattern_3 0.458951 0.500589 0.507708 0.521720 0.568132 0.534585
Pattern_3 0.649640 0.705473 0.884369 0.884154 1.027015 1.252856
Pattern_3 1.229803 1.221633 1.376826 1.366114 1.310463 1.460088
Pattern_3 1.487953 1.308181 1.419273 1.244358 1.143666 1.210367
Pattern_3 1.200990 1.195985 1.223887 1.209256 1.249346 1.139721
Pattern_3 1.238692 1.211585 1.228545 1.197337 1.132298 1.279118
Pattern_3 1.163837 1.146006 1.080474 0.993659 0.898849 0.754210
Pattern_3 0.700553 0.638643 0.521666 0.467554 0.414812 0.436596
Pattern_3 0.387060 0.417403 0.463961 0.559508 0.738369 0.787330
Pattern_3 0.891524 1.125713 1.216375 1.456366 1.386628 1.625405
Pattern_3 1.828238 1.599994 1.873557 1.795709 1.775418 1.726206
Pattern_3 1.471670 1.482521 1.494517 1.369653 1.260798 1.231625
Pattern_3 1.301133 1.073820 1.132058 1.165764 1.207409 1.130198
Pattern_3 1.353305 1.378133 1.334475 1.355893 1.352165 1.404725
Pattern_3 1.363268 1.295417 1.284564 1.053800 1.011983 0.873769
Pattern_3 0.712859 0.600249 0.561608 0.494741 0.456549 0.435736
Pattern_3 0.474430 0.459483 0.483030 0.586417 0.728244 0.808597
Pattern_3 1.008013 1.132737 1.270958 1.368406 1.481579 1.451940
Pattern_3 1.620033 1.738017 1.728652 1.570773 1.804343 1.609439
Pattern_3 1.437131 1.475705 1.335238 1.248097 1.320035 1.219180
Pattern_3 1.147353 1.092589 1.205545 1.223104 1.158279 1.288674
Pattern_3 1.313237 1.275480 1.360789 1.394449 1.291951 1.354375
Pattern_3 1.308112 1.315834 1.093992 1.227443 0.968811 0.913287
Pattern_3 0.751125 0.630309 0.577255 0.503383 0.450989 0.414995
Pattern_3 0.444294 0.455119 0.553751 0.650945 0.772802 0.881627
Pattern_3 0.992555 1.139592 1.264115 1.389729 1.462470 1.573496
Pattern_3 1.605685 1.733933 1.696315 1.715261 1.501086 1.495949
Pattern_3 1.515142 1.502119 1.439141 1.358261 1.396252 1.416502
Pattern_3 1.254064 1.171407 1.366101 1.285644 1.320948 1.348521
Pattern_3 1.278348 1.334367 1.287316 1.378110 1.498512 1.304188
Pattern_3 1.370867 1.287899 1.196958 1.084780 1.099758 0.876806
Pattern_3 0.764482 0.653776 0.544889 0.486315 0.400936 0.421597
Pattern_3 0.406065 0.438091 0.488820 0.596350 0.781892 0.871647
Pattern_3 1.081154 1.138744 1.299631 1.393514 1.643481 1.511754
Pattern_3 1.728343 1.782810 1.674749 1.581617 1.635685 1.682881
Pattern_3 1.460351 1.488237 1.306044 1.275460 1.431390 1.275091
Pattern_3 1.236975 1.221599 1.207558 1.341259 1.241629 1.458259
Pattern_3 1.254146 1.263136 1.432705 1.380751 1.376826 1.347573
Pattern_3 1.371421 1.213607 1.268801 1.140076 0.982859 0.924640
Pattern_3 0.781408 0.686341 0.613010 0.536517 0.468284 0.443853
Pattern_3 0.508746 0.499403 0.654235 0.733412 0.806062 0.953920
Pattern_3 1.187707 1.266503 1.424316 1.467930 1.545305 1.681133
Pattern_3 1.785144 1.953614 1.777722 1.832304 1.742771 1.748182
Pattern_3 1.600013 1.574426 1.495010 1.458756 1.550125 1.343772
Pattern_3 1.352375 1.244181 1.350307 1.304794 1.397566 1.252159
Pattern_3 1.320308 1.383710 1.405159 1.339823 1.327267 1.297258
Pattern_3 1.261865 1.227249 1.243091 1.110784 1.004093 0.879175
Pattern_3 0.767300 0.756606 0.677926 0.604574 0.588757 0.511267
Pattern_3 0.505173 0.466553 0.512262 0.562437 0.614209 0.788876
Pattern_3 0.767043 0.996686 1.048116 1.051635 1.325905 1.386062
Pattern_3 1.481852 1.546289 1.624998 1.664368 1.583348 1.578713
Pattern_3 1.701203 1.593999 1.462801 1.320257 1.277563 1.330894
Pattern_3 1.300511 1.337004 1.294983 1.433484 1.361754 1.345684
Pattern_3 1.289675 1.353010 1.252194 1.192562 1.265891 1.215898
Pattern_3 1.119297 1.033773 0.968291 0.934632 0.902882 0.821766
Pattern_3 0.746186

Pattern_4 0.783590 0.697552 0.653518 0.659811 0.603416 0.520213
Pattern_4 0.481853 0.457661 0.527726 0.514463 0.545487 0.603533
Pattern_4 0.645522 0.741736 0.769508 0.869420 0.979304 1.027250
Pattern_4 1.111343 1.155021 1.298834 1.335055 1.354174 1.354379
Pattern_4 1.475189 1.362985 1.305941 1.222792 1.172964 1.184465
Pattern_4 1.255031 1.185558 1.096659 1.179648 1.129539 1.152163
Pattern_4 1.186372 1.257803 1.232823 1.279308 1.378746 1.205456
Pattern_4 1.196256 1.233803 1.031726 0.893655 0.905388 0.810753
Pattern_4 0.739211 0.569907 0.572606 0.503678 0.476807 0.451140
Pattern_4 0.419728 0.483347 0.517912 0.604128 0.739447 0.788159
Pattern_4 0.944839 1.044383 1.149368 1.345781 1.423516 1.470556
Pattern_4 1.559418 1.543284 1.632315 1.529093 1.672599 1.554909
Pattern_4 1.453591 1.541061 1.398906 1.352912 1.191815 1.080729
Pattern_4 1.026009 1.058710 1.032249 1.005026 1.131836 1.198946
Pattern_4 1.265060 1.247429 1.292417 1.374685 1.479244 1.333048
Pattern_4 1.294905 1.275567 1.279239 1.150351 1.011131 0.837298
Pattern_4 0.800747 0.671887 0.602267 0.507953 0.491527 0.419964
Pattern_4 0.434927 0.470871 0.501997 0.636263 0.677746 0.790935
Pattern_4 0.892174 1.030283 1.136057 1.237768 1.348361 1.580812
Pattern_4 1.388316 1.594887 1.555112 1.602952 1.592179 1.460255
Pattern_4 1.543607 1.417073 1.232704 1.211423 1.166276 1.197605
Pattern_4 1.186885 1.195386 1.249616 1.132293 1.261727 1.233886
Pattern_4 1.261805 1.337015 1.282792 1.426843 1.329078 1.465660
Pattern_4 1.441471 1.230027 1.206835 1.042675 0.975393 0.915215
Pattern_4 0.743583 0.678374 0.609868 0.499859 0.439190 0.483384
Pattern_4 0.463386 0.530788 0.585673 0.700661 0.776149 0.808692
Pattern_4 0.947136 1.017935 1.213274 1.314326 1.371278 1.485332
Pattern_4 1.525074 1.632953 1.670351 1.617758 1.470099 1.524190
Pattern_4 1.511459 1.459893 1.403127 1.323765 1.295247 1.254695
Pattern_4 1.330220 1.225553 1.268962 1.193474 1.229895 1.227339
Pattern_4 1.297549 1.382423 1.396991 1.303572 1.323673 1.411116
Pattern_4 1.403054 1.209659 1.082970 1.144840 0.988455 0.911329
Pattern_4 0.846218 0.693409 0.556331 0.531185 0.457622 0.443393
Pattern_4 0.434910 0.555073 0.628179 0.662292 0.743685 0.846217
Pattern_4 1.060844 1.121349 1.244951 1.389845 1.438903 1.464591
Pattern_4 1.509275 1.530122 1.683323 1.450208 1.380548 1.362616
Pattern_4 1.476337 1.355411 1.231960 1.332739 1.224510 1.260151
Pattern_4 1.064765 1.191788 1.217976 1.208644 1.289412 1.382814
Pattern_4 1.252239 1.381479 1.379387 1.405750 1.270348 1.454254
Pattern_4 1.295839 1.274646 1.167808 1.120110 1.033556 0.813784
Pattern_4 0.688714 0.659563 0.603340 0.491502 0.471765 0.507028
Pattern_4 0.520395 0.580565 0.583816 0.762845 0.812688 0.952705
Pattern_4 1.103697 1.190677 1.454643 1.422238 1.690718 1.943644
Pattern_4 1.781739 1.851237 1.768949 1.845461 1.784810 1.645383
Pattern_4 1.503220 1.431422 1.496049 1.390553 1.433387 1.276698
Pattern_4 1.293595 1.338380 1.305504 1.326374 1.349336 1.272641
Pattern_4 1.402245 1.451167 1.298095 1.393326 1.250414 1.304925
Pattern_4 1.272769 1.097190 1.166873 1.206713 1.024866 0.873230
Pattern_4 0.832837 0.803510 0.701378 0.603949 0.595754 0.544791
Pattern_4 0.482643 0.508443 0.506036 0.599484 0.565901 0.717492
Pattern_4 0.770585 0.984871 1.008400 1.155243 1.229361 1.171339
Pattern_4 1.410327 1.448852 1.525908 1.510098 1.583857 1.494802
Pattern_4 1.482545 1.549588 1.455793 1.442257 1.377980 1.329944
Pattern_4 1.222614 1.355290 1.379378 1.256151 1.356721 1.320703
Pattern_4 1.275615 1.240613 1.163686 1.249111 1.124830 1.231799
Pattern_4 1.014622 1.082819 1.028390 1.003822 0.862511 0.887932
Pattern_4 0.800905 0.708947 0.713402 0.609976 0.570033 0.539123
Pattern_4 0.533858 0.489564 0.504458 0.579944 0.501780 0.512569
Pattern_4 0.683083 0.757117 0.838871 0.883891 1.034092 1.015781
Pattern_4 1.178607 1.302113 1.324429 1.447697 1.448930 1.415895
Pattern_4 1.319153 1.426294 1.470056 1.211681 1.239108 1.170849
Pattern_4 1.150447 1.181035 1.124733 1.133607 1.161805 1.143144
Pattern_4 1.233114 1.216671 1.159350 1.264623 1.230427 1.265193
Pattern_4 1.128741 1.162615 0.988871 0.937252 0.918504 0.844768
Pattern_4 0.771472 0.660305 0.537827 0.490888 0.447085 0.417684
Pattern_4 0.417423 0.460038 0.552287 0.591828 0.675597 0.741036
Pattern_4 0.969412 1.090881 1.165717 1.408854 1.363100 1.475224
Pattern_4 1.452882 1.740302 1.826952 1.656162 1.857547 1.562827
Pattern_4 1.520148 1.522909 1.439831 1.280545 1.242302 1.178042
Pattern_4 1.156914 1.067782 1.100649 1.234530 1.302546 1.248680
Pattern_4 1.327310 1.228009 1.335543 1.387330 1.331659 1.392788
Pattern_4 1.336224 1.361927 1.197356 1.119102 0.982088 0.911975
Pattern_4 0.752824 0.710495 0.620662 0.524990 0.520966 0.484329
Pattern_4 0.445195 0.479572 0.571844 0.615989 0.732977 0.899128
Pattern_4 0.986836 1.120602 1.286927 1.252452 1.353277 1.482352
Pattern_4 1.514684 1.572101 1.667508 1.647999 1.628367 1.634612
Pattern_4 1.595682 1.405264 1.323603 1.244396 1.231481 1.169652
Pattern_4 1.323612 1.139102 1.238952 1.132444 1.202188 1.350739
Pattern_4 1.294013 1.235797 1.278600 1.379114 1.394467 1.411891
Pattern_4 1.415158 1.357039 1.205557 1.143633 0.953235 0.888460
Pattern_4 0.775590 0.616740 0.621443 0.561345 0.451956 0.500509
Pattern_4 0.459281 0.491534 0.572300 0.689990 0.801668 0.907071
Pattern_4 0.961563 1.118182 1.239208 1.393177 1.456246 1.485109
Pattern_4 1.416382 1.480045 1.672433 1.707014 1.672467 1.528389
Pattern_4 1.595136 1.417616 1.458372 1.281532 1.356424 1.357225
Pattern_4 1.301364 1.264319 1.220318 1.185234 1.275575 1.430590
Pattern_4 1.391013 1.353198 1.420548 1.351747 1.448053 1.307466
Pattern_4 1.328723 1.389293 1.132310 1.179255 0.960293 0.887129
Pattern_4 0.844058 0.669356 0.603252 0.552765 0.473180 0.478558
Pattern_4 0.473659 0.466840 0.545695 0.654290 0.819783 0.822589
Pattern_4 1.079690 1.202285 1.220644 1.439829 1.443451 1.495899
Pattern_4 1.617968 1.434733 1.584228 1.445289 1.571698 1.470879
Pattern_4 1.438367 1.329726 1.225724 1.259108 1.307500 1.195792
Pattern_4 1.331771 1.305328 1.222447 1.297879 1.339681 1.282404
Pattern_4 1.403381 1.445585 1.358626 1.440386 1.351533 1.389080
Pattern_4 1.387074 1.333460 1.268180 1.134223 1.024811 0.890539
Pattern_4 0.826124 0.727266 0.625989 0.561580 0.527692 0.497764
Pattern_4 0.515679 0.593622 0.602508 0.746070 0.857752 1.056275
Pattern_4 1.093417 1.352498 1.435352 1.576556 1.692401 1.736122
Pattern_4 1.829955 1.793790 1.829164 1.875551 1.600416 1.663853
Pattern_4 1.715578 1.579630 1.433361 1.497395 1.417927 1.362139
Pattern_4 1.291649 1.248609 1.292201 1.279883 1.296937 1.460355
Pattern_4 1.401332 1.242790 1.364094 1.459935 1.387459 1.326267
Pattern_4 1.377973 1.154960 1.139454 1.105898 1.059884 0.868148
Pattern_4 0.873777 0.795331 0.730613 0.590391 0.572754 0.541301