; Filename: ../Network_Originals/Hanoi_CMH.inp
; WNTR: 0.4.0
; Created: 2022-11-16 12:18:51
[TITLE]

[JUNCTIONS]
;ID                      Elevation       Demand Pattern                 
 2                                 30          247.22 Pattern_2                  ;
 3                                 30          236.11 Pattern_3                  ;
 4                                 30           36.11 Pattern_4                  ;
 5                                 30          201.39 Pattern_5                  ;
 6                                 30          279.17 Pattern_6                  ;
 7                                 30             375 Pattern_7                  ;
 8                                 30          152.78 Pattern_8                  ;
 9                                 30          145.83 Pattern_9                  ;
 10                                30          145.83 Pattern_10                 ;
 11                                30          138.89 Pattern_11                 ;
 12                                30          155.56 Pattern_12                 ;
 13                                30          261.11 Pattern_13                 ;
 14                                30          170.83 Pattern_14                 ;
 15                                30           77.78 Pattern_15                 ;
 16                                30           86.11 Pattern_16                 ;
 17                                30          240.28 Pattern_17                 ;
 18                                30          373.61 Pattern_18                 ;
 19                                30           16.67 Pattern_19                 ;
 20                                30          354.17 Pattern_20                 ;
 21                                30          258.33 Pattern_21                 ;
 22                                30          134.72 Pattern_22                 ;
 23                                30          290.28 Pattern_23                 ;
 24                                30          227.78 Pattern_24                 ;
 25                                30           47.22 Pattern_25                 ;
 26                                30             250 Pattern_26                 ;
 27                                30          102.78 Pattern_27                 ;
 28                                30           80.56 Pattern_28                 ;
 29                                30             100 Pattern_29                 ;
 30                                30             100 Pattern_30                 ;
 31                                30           29.17 Pattern_31                 ;
 32                                30          223.61 Pattern_32                 ;

[RESERVOIRS]
;ID                                   Head                  Pattern
 1                                100                            ;

[TANKS]
;ID                              Elevation           Init Level            Min Level            Max Level             Diameter           Min Volume Volume Curve         Overflow            

[PIPES]
;ID                   Node1                Node2                              Length             Diameter            Roughness           Minor Loss               Status
 1                    1                    2                                100            1016             130               0                 Open   ;
 2                    2                    3                               1350            1016             130               0                 Open   ;
 3                    3                    4                                900            1016             130               0                 Open   ;
 4                    4                    5                               1150            1016             130               0                 Open   ;
 5                    5                    6                               1450            1016             130               0                 Open   ;
 6                    6                    7                                450            1016             130               0                 Open   ;
 7                    7                    8                                850            1016             130               0                 Open   ;
 8                    8                    9                                850            1016             130               0                 Open   ;
 9                    9                    10                               800            1016             130               0                 Open   ;
 10                   10                   11                               950             762             130               0                 Open   ;
 11                   11                   12                              1200             762             130               0                 Open   ;
 12                   12                   13                              3500           609.6             130               0                 Open   ;
 13                   10                   14                               800           406.4             130               0                 Open   ;
 14                   14                   15                               500           406.4             130               0                 Open   ;
 15                   15                   16                               550           304.8             130               0                 Open   ;
 16                   17                   16                              2730           406.4             130               0                 Open   ;
 17                   17                   18                              1750             508             130               0                 Open   ;
 18                   18                   19                               800           609.6             130               0                 Open   ;
 19                   19                   3                                400           609.6             130               0                 Open   ;
 20                   3                    20                              2200            1016             130               0                 Open   ;
 21                   20                   21                              1500             508             130               0                 Open   ;
 22                   21                   22                               500           304.8             130               0                 Open   ;
 23                   20                   23                              2650            1016             130               0                 Open   ;
 24                   23                   24                              1230             762             130               0                 Open   ;
 25                   24                   25                              1300             762             130               0                 Open   ;
 26                   26                   25                               850             508             130               0                 Open   ;
 27                   27                   26                               300           304.8             130               0                 Open   ;
 28                   16                   27                               750           304.8             130               0                 Open   ;
 29                   23                   28                              1500           406.4             130               0                 Open   ;
 30                   28                   29                              2000           406.4             130               0                 Open   ;
 31                   29                   30                              1600           304.8             130               0                 Open   ;
 32                   30                   31                               150           304.8             130               0                 Open   ;
 33                   32                   31                               860           406.4             130               0                 Open   ;
 34                   25                   32                               950             508             130               0                 Open   ;

[PUMPS]
;ID                   Node1                Node2                Properties          

[VALVES]
;ID                   Node1                Node2                            Diameter Type              Setting           Minor Loss

[TAGS]
;type      name       tag       

[DEMANDS]
;ID        Demand     Pattern   

[STATUS]
;ID        Setting   

[PATTERNS]
;ID        Multipliers

Pattern_2 0.822634 0.808737 0.752379 0.703425 0.596559 0.599027
Pattern_2 0.652924 0.603302 0.623611 0.710764 0.731654 0.676034
Pattern_2 0.681776 0.831858 0.917736 0.958052 1.064311 1.062758
Pattern_2 1.086562 1.199086 1.250851 1.284698 1.276245 1.314923
Pattern_2 1.234719 1.277360 1.203958 1.260698 1.165479 1.283520
Pattern_2 1.243731 1.116409 1.167306 1.174443 1.177127 1.170309
Pattern_2 1.123224 1.236075 1.266490 1.190773 1.134786 1.282856
Pattern_2 1.091879 1.234124 1.086594 0.875225 0.938638 0.810529
Pattern_2 0.828860 0.747912 0.696023 0.587535 0.554217 0.581643
Pattern_2 0.566626 0.614765 0.653438 0.702536 0.852620 0.849359
Pattern_2 0.909341 1.047316 1.302532 1.279776 1.406550 1.344899
Pattern_2 1.492790 1.492401 1.480146 1.583280 1.528005 1.362020
Pattern_2 1.495074 1.337492 1.367594 1.294028 1.225311 1.158408
Pattern_2 1.175729 1.132388 1.106938 1.146150 1.085616 1.138722
Pattern_2 1.138755 1.318106 1.217065 1.299029 1.256525 1.232941
Pattern_2 1.322066 1.199053 1.147931 1.087594 1.037099 0.862439
Pattern_2 0.883480 0.779641 0.660786 0.594840 0.615756 0.559377
Pattern_2 0.631515 0.612089 0.700691 0.771754 0.831308 0.811207
Pattern_2 0.964872 1.146481 1.268073 1.232849 1.382778 1.428092
Pattern_2 1.408457 1.339906 1.493166 1.566960 1.489127 1.498752
Pattern_2 1.476724 1.262126 1.285616 1.265745 1.226301 1.191474
Pattern_2 1.114531 1.127186 1.153376 1.134070 1.202557 1.151650
Pattern_2 1.214372 1.218625 1.251079 1.263704 1.472401 1.224858
Pattern_2 1.350128 1.127154 1.262945 1.111449 0.979373 0.876343
Pattern_2 0.871270 0.744263 0.720690 0.633789 0.590640 0.508242
Pattern_2 0.589669 0.655438 0.685558 0.721276 0.787599 0.763133
Pattern_2 1.104101 1.022335 1.134868 1.266420 1.314591 1.424220
Pattern_2 1.314891 1.629730 1.533752 1.489550 1.470650 1.438299
Pattern_2 1.442874 1.290268 1.351369 1.336184 1.288803 1.122473
Pattern_2 1.177630 1.119085 1.186132 1.249780 1.152250 1.208804
Pattern_2 1.212865 1.257523 1.239133 1.375433 1.246289 1.177718
Pattern_2 1.138845 1.064606 1.107844 1.105836 0.971972 0.898708
Pattern_2 0.791585 0.690052 0.655842 0.649360 0.565765 0.535427
Pattern_2 0.530070 0.555778 0.653624 0.708712 0.778002 0.933149
Pattern_2 1.077492 1.081393 1.234710 1.263112 1.411854 1.533187
Pattern_2 1.439993 1.530862 1.418356 1.495907 1.485958 1.369318
Pattern_2 1.346306 1.465212 1.333864 1.200520 1.137870 1.212478
Pattern_2 1.258723 1.197585 1.130984 1.241553 1.284462 1.250107
Pattern_2 1.363116 1.315133 1.278683 1.244013 1.497759 1.218160
Pattern_2 1.281274 1.253988 1.098461 1.004936 0.966394 0.943776
Pattern_2 0.936854 0.765317 0.711737 0.668149 0.630260 0.592505
Pattern_2 0.625740 0.634915 0.728142 0.746335 0.918316 0.981572
Pattern_2 1.215531 1.214889 1.380257 1.477722 1.619590 1.730390
Pattern_2 1.541450 1.631007 1.698842 1.661803 1.604953 1.495229
Pattern_2 1.534033 1.368084 1.352863 1.341808 1.285069 1.405277
Pattern_2 1.362968 1.319577 1.262328 1.255059 1.315202 1.221319
Pattern_2 1.214553 1.256156 1.284508 1.212700 1.254513 1.201355
Pattern_2 1.323104 1.145292 1.139767 1.024403 0.908551 0.966176
Pattern_2 0.877063 0.780863 0.778777 0.713974 0.681018 0.632962
Pattern_2 0.613165 0.696003 0.628373 0.710846 0.742390 0.837196
Pattern_2 0.851203 0.922464 1.058067 1.121299 1.207667 1.310544
Pattern_2 1.326486 1.360108 1.325474 1.427961 1.362567 1.469712
Pattern_2 1.461965 1.424922 1.377420 1.459034 1.329623 1.291623
Pattern_2 1.280275 1.312198 1.263117 1.325803 1.232995 1.369833
Pattern_2 1.248347 1.187681 1.227272 1.140145 1.251655 0.986458
Pattern_2 1.102729 1.024866 0.982531 0.971203 0.922524 0.903935
Pattern_2 0.739487 0.712810 0.726015 0.756341 0.659652 0.610584
Pattern_2 0.671399 0.672092 0.622671 0.642606 0.682690 0.717569
Pattern_2 0.767321 0.752387 0.887231 0.906346 1.078049 1.141807
Pattern_2 1.154044 1.120989 1.284155 1.230222 1.377340 1.200757
Pattern_2 1.300766 1.404511 1.268274 1.300552 1.232771 1.155205
Pattern_2 1.199651 1.233789 1.180923 1.214615 1.152140 1.271513
Pattern_2 1.110930 1.201372 1.223265 1.187249 1.123724 1.171226
Pattern_2 1.125656 1.165981 1.127728 0.943889 0.961621 0.847116
Pattern_2 0.735573 0.789488 0.629412 0.597561 0.613823 0.579560
Pattern_2 0.569609 0.628039 0.649556 0.691194 0.807008 0.940320
Pattern_2 0.949201 1.039141 1.190372 1.334315 1.378899 1.341295
Pattern_2 1.531639 1.620401 1.532013 1.579535 1.548580 1.658458
Pattern_2 1.451622 1.390637 1.349226 1.204269 1.145443 1.220006
Pattern_2 1.182714 1.165943 1.154621 1.053364 1.030910 1.170605
Pattern_2 1.269526 1.240101 1.286438 1.388967 1.315540 1.296316
Pattern_2 1.376973 1.158840 1.127946 1.104371 0.989801 0.901611
Pattern_2 0.857711 0.782837 0.674853 0.616698 0.592033 0.584696
Pattern_2 0.611705 0.621585 0.663213 0.713558 0.802797 0.938064
Pattern_2 1.011208 1.071544 1.178541 1.238241 1.433385 1.435211
Pattern_2 1.493822 1.571849 1.592464 1.385396 1.367305 1.417099
Pattern_2 1.511107 1.412119 1.342961 1.252914 1.295402 1.086611
Pattern_2 1.226045 1.096350 1.250085 1.147507 1.213637 1.169154
Pattern_2 1.247503 1.363270 1.357784 1.424863 1.342753 1.412070
Pattern_2 1.375811 1.230819 1.205294 1.114300 1.006175 0.980969
Pattern_2 0.916315 0.756169 0.613650 0.614349 0.574097 0.542346
Pattern_2 0.606976 0.587720 0.630630 0.776988 0.851350 0.934263
Pattern_2 1.010752 1.162055 1.252473 1.224437 1.434736 1.460592
Pattern_2 1.514337 1.561883 1.591859 1.426538 1.536779 1.429664
Pattern_2 1.414652 1.354900 1.321103 1.280364 1.343541 1.225388
Pattern_2 1.201006 1.276843 1.163165 1.291938 1.244976 1.348789
Pattern_2 1.301084 1.229118 1.281318 1.326483 1.561330 1.292936
Pattern_2 1.341004 1.255807 1.135833 1.123288 1.042576 0.895626
Pattern_2 0.794847 0.761766 0.700791 0.624995 0.599716 0.552642
Pattern_2 0.607241 0.620656 0.727894 0.751413 0.813348 0.952616
Pattern_2 1.017800 1.110367 1.159303 1.241856 1.469924 1.429589
Pattern_2 1.557817 1.432227 1.425223 1.498350 1.361991 1.505468
Pattern_2 1.443794 1.290949 1.243879 1.285907 1.340868 1.163936
Pattern_2 1.211713 1.134181 1.322663 1.106887 1.353193 1.246413
Pattern_2 1.337089 1.332627 1.252577 1.208334 1.342137 1.276751
Pattern_2 1.196368 1.206577 1.184472 1.111668 1.026725 0.915505
Pattern_2 0.874206 0.747298 0.728489 0.650684 0.593341 0.582972
Pattern_2 0.655383 0.678444 0.779692 0.837005 0.887027 1.003817
Pattern_2 1.230651 1.338303 1.469106 1.395861 1.607467 1.574750
Pattern_2 1.831599 1.691596 1.538602 1.639524 1.619268 1.593030
Pattern_2 1.578524 1.464156 1.419665 1.414715 1.245100 1.483384
Pattern_2 1.326129 1.395848 1.334776 1.349607 1.285624 1.213824
Pattern_2 1.242432 1.386457 1.382482 1.335834 1.266947 1.159681
Pattern_2 1.288797 1.316265 1.154911 1.047238 1.016409 0.953958
Pattern_2 0.920736 0.858085 0.788169 0.736407 0.674757 0.664085
Pattern_2 0.573275 0.679486 0.677644 0.677878 0.769132 0.846917
Pattern_2 0.870331 0.949901 1.068843 1.043523 1.377658 1.237820
Pattern_2 1.188449 1.313097 1.492642 1.361383 1.320571 1.427898
Pattern_2 1.421701 1.536571 1.439110 1.308534 1.262939 1.236475
Pattern_2 1.270983 1.315056 1.316963 1.193492 1.315887 1.310909
Pattern_2 1.255100 1.366020 1.344765 1.190052 1.176262 1.169503
Pattern_2 1.048341 1.029021 0.986254 0.900973 0.871052 0.906113
Pattern_2 0.763205

Pattern_3 0.858802 0.738894 0.615696 0.735614 0.677600 0.563092
Pattern_3 0.584782 0.631120 0.656056 0.618178 0.626936 0.652704
Pattern_3 0.752758 0.714789 0.831811 0.997114 0.971457 1.018506
Pattern_3 1.116105 1.280474 1.335052 1.256875 1.400416 1.395011
Pattern_3 1.311806 1.261774 1.261149 1.245158 1.197032 1.089710
Pattern_3 1.096816 1.180096 1.191844 1.120979 1.040966 1.192450
Pattern_3 1.144649 1.132376 1.244240 1.197245 1.282086 1.270804
Pattern_3 1.153981 1.158511 1.122579 0.991645 0.966731 0.814158
Pattern_3 0.807644 0.700319 0.638729 0.534960 0.552041 0.541205
Pattern_3 0.541823 0.602790 0.619392 0.623395 0.749885 0.842778
Pattern_3 0.994793 1.033088 1.143115 1.338578 1.431904 1.546791
Pattern_3 1.636213 1.613992 1.499339 1.535524 1.626656 1.498756
Pattern_3 1.565564 1.396639 1.298236 1.254801 1.141397 1.159672
Pattern_3 1.105256 1.257757 1.136516 1.162248 1.099275 1.074176
Pattern_3 1.133378 1.304710 1.295179 1.201821 1.326248 1.318187
Pattern_3 1.243961 1.366196 1.163400 1.088141 1.041091 0.976508
Pattern_3 0.865336 0.781108 0.708682 0.582256 0.557117 0.569026
Pattern_3 0.531079 0.560009 0.609598 0.673639 0.793670 0.883151
Pattern_3 0.929363 1.184201 1.245935 1.397240 1.430425 1.241859
Pattern_3 1.410442 1.595585 1.486225 1.619548 1.522400 1.424660
Pattern_3 1.410661 1.248819 1.316645 1.307061 1.100023 1.097868
Pattern_3 1.152545 1.137012 1.232979 1.274359 1.215896 1.261142
Pattern_3 1.294385 1.199000 1.203203 1.203632 1.259590 1.320275
Pattern_3 1.341688 1.263338 1.218026 1.174361 1.002732 0.869314
Pattern_3 0.832484 0.728997 0.639135 0.551182 0.560167 0.516165
Pattern_3 0.555443 0.541842 0.639965 0.735019 0.819805 0.985395
Pattern_3 1.000543 1.174749 1.129385 1.315011 1.372953 1.500894
Pattern_3 1.524893 1.569067 1.495937 1.469266 1.511536 1.406808
Pattern_3 1.472979 1.232584 1.430403 1.336851 1.291469 1.345701
Pattern_3 1.184809 1.072053 1.136107 1.179822 1.194771 1.265583
Pattern_3 1.323146 1.370633 1.373580 1.216629 1.248182 1.262781
Pattern_3 1.175852 1.271563 1.080300 1.115515 0.927107 0.867195
Pattern_3 0.861663 0.822548 0.705501 0.674121 0.612719 0.597353
Pattern_3 0.578110 0.638395 0.675715 0.692751 0.785305 0.971171
Pattern_3 1.018442 1.103309 1.248166 1.362197 1.445159 1.544187
Pattern_3 1.502387 1.466281 1.508779 1.409868 1.389124 1.501299
Pattern_3 1.339998 1.366714 1.305852 1.293200 1.203284 1.246736
Pattern_3 1.129072 1.168528 1.238728 1.113749 1.240570 1.227808
Pattern_3 1.172758 1.227709 1.249723 1.423083 1.250261 1.279650
Pattern_3 1.185323 1.165585 1.232234 1.191976 1.074749 0.900649
Pattern_3 0.860031 0.706405 0.684463 0.643655 0.592782 0.559084
Pattern_3 0.561365 0.615969 0.653224 0.836491 0.960631 0.957537
Pattern_3 1.171226 1.300466 1.363175 1.452716 1.668357 1.696201
Pattern_3 1.816226 1.732457 1.799181 1.705135 1.490528 1.619779
Pattern_3 1.578661 1.545771 1.490975 1.431943 1.313756 1.229365
Pattern_3 1.175331 1.253739 1.237842 1.386639 1.255293 1.324879
Pattern_3 1.247918 1.221756 1.316421 1.323121 1.367533 1.301742
Pattern_3 1.251059 1.197582 1.199237 1.075337 0.940970 0.894265
Pattern_3 0.858984 0.775452 0.751186 0.725547 0.662019 0.596573
Pattern_3 0.567764 0.594401 0.574297 0.800592 0.683780 0.703988
Pattern_3 0.814232 0.942129 1.031221 1.092250 1.115566 1.426542
Pattern_3 1.390477 1.396751 1.317756 1.462971 1.492634 1.350012
Pattern_3 1.471680 1.445352 1.379210 1.465242 1.157353 1.279079
Pattern_3 1.257108 1.196169 1.278233 1.362365 1.329022 1.226298
Pattern_3 1.334306 1.359247 1.235098 1.196330 1.148763 1.149024
Pattern_3 1.058412 1.077734 1.106604 0.989913 0.942193 0.840828
Pattern_3 0.736553 0.783717 0.769235 0.719358 0.641021 0.695158
Pattern_3 0.646212 0.544167 0.634370 0.630668 0.647070 0.639690
Pattern_3 0.709693 0.794516 0.840389 0.918554 1.090496 1.129117
Pattern_3 1.085870 1.147602 1.355207 1.305430 1.277402 1.439201
Pattern_3 1.237901 1.342551 1.413910 1.347988 1.315904 1.217278
Pattern_3 1.164225 1.297461 1.148844 1.105593 1.209553 1.194417
Pattern_3 1.107282 1.260003 1.123295 1.238951 1.275705 1.180989
Pattern_3 1.207430 1.234908 1.092482 1.057147 1.034514 0.825524
Pattern_3 0.800725 0.758088 0.579254 0.569594 0.598976 0.535908
Pattern_3 0.572741 0.573721 0.617891 0.750996 0.792556 0.912061
Pattern_3 1.062230 1.121754 1.132974 1.365550 1.439284 1.457370
Pattern_3 1.543906 1.660788 1.718259 1.650312 1.536605 1.443067
Pattern_3 1.445082 1.344717 1.398098 1.335465 1.215420 1.144622
Pattern_3 1.233319 1.098736 1.100534 1.146690 1.133701 1.147662
Pattern_3 1.242957 1.256344 1.281418 1.361148 1.338350 1.460177
Pattern_3 1.362528 1.218455 1.127352 1.206013 0.974551 0.987094
Pattern_3 0.822800 0.780506 0.670763 0.632115 0.611185 0.561747
Pattern_3 0.538247 0.643615 0.688958 0.650015 0.787854 0.899044
Pattern_3 1.041302 1.056390 1.317982 1.234389 1.355532 1.513399
Pattern_3 1.490670 1.447607 1.522919 1.461853 1.556422 1.440726
Pattern_3 1.412125 1.443979 1.330260 1.328557 1.203492 1.248241
Pattern_3 1.162217 1.105410 1.223441 1.241644 1.184104 1.297075
Pattern_3 1.293642 1.200573 1.418104 1.365412 1.396615 1.407949
Pattern_3 1.322998 1.237963 1.080796 1.097928 0.998694 0.922541
Pattern_3 0.826088 0.745834 0.646406 0.622087 0.575899 0.532847
Pattern_3 0.532025 0.572609 0.657773 0.679176 0.846143 1.081542
Pattern_3 1.040842 1.142938 1.183467 1.215888 1.386868 1.448739
Pattern_3 1.549797 1.659891 1.426160 1.454422 1.594586 1.421032
Pattern_3 1.454575 1.513850 1.457154 1.538403 1.431736 1.286578
Pattern_3 1.169137 1.191252 1.152796 1.234129 1.134550 1.334585
Pattern_3 1.263225 1.171680 1.415885 1.308133 1.345522 1.173033
Pattern_3 1.377171 1.186852 1.212253 1.147449 1.094667 0.939314
Pattern_3 0.826067 0.824300 0.708677 0.580722 0.602759 0.569484
Pattern_3 0.576741 0.578423 0.684128 0.725079 0.811168 0.955046
Pattern_3 1.115533 1.163741 1.270711 1.406540 1.461017 1.482694
Pattern_3 1.495403 1.509662 1.742072 1.539920 1.529519 1.415469
Pattern_3 1.447777 1.368332 1.375356 1.333902 1.200056 1.274284
Pattern_3 1.307374 1.067631 1.129974 1.178349 1.206784 1.309457
Pattern_3 1.267193 1.392591 1.349377 1.187668 1.436256 1.233438
Pattern_3 1.355580 1.250493 1.204861 1.184685 1.062494 0.980901
Pattern_3 0.853617 0.847540 0.692294 0.630338 0.619237 0.610236
Pattern_3 0.630170 0.655148 0.727303 0.797923 0.940045 0.967254
Pattern_3 1.101378 1.174907 1.433073 1.577513 1.631971 1.823526
Pattern_3 1.792650 1.736981 1.773099 1.667737 1.657754 1.687924
Pattern_3 1.577820 1.526922 1.526669 1.381604 1.404412 1.350810
Pattern_3 1.361396 1.291570 1.198390 1.299910 1.314917 1.266984
Pattern_3 1.299931 1.378664 1.340816 1.350594 1.314622 1.233881
Pattern_3 1.276431 1.245864 1.056121 1.126347 1.049682 0.993908
Pattern_3 0.943704 0.774997 0.721310 0.739633 0.686992 0.675445
Pattern_3 0.603161 0.651878 0.603932 0.565557 0.728133 0.817540
Pattern_3 0.894837 1.003675 1.079230 1.145415 1.218051 1.154674
Pattern_3 1.380490 1.419043 1.447580 1.539747 1.513049 1.418047
Pattern_3 1.605695 1.412610 1.395568 1.384374 1.321403 1.114820
Pattern_3 1.237656 1.282263 1.301581 1.299271 1.301767 1.202528
Pattern_3 1.288567 1.171190 1.402225 1.237926 1.146456 1.168153
Pattern_3 1.155652 1.013354 1.033939 0.892129 0.910813 0.841508
Pattern_3 0.853011

Pattern_4 0.768690 0.715656 0.673309 0.673534 0.533150 0.577974
Pattern_4 0.573212 0.490947 0.529884 0.518717 0.560404 0.553983
Pattern_4 0.630089 0.759190 0.759827 0.926123 0.960155 1.055228
Pattern_4 1.129808 1.116584 1.194334 1.227658 1.232985 1.374598
Pattern_4 1.434195 1.290134 1.308185 1.288643 1.225618 1.121841
Pattern_4 1.292915 1.138154 1.211583 1.153035 1.180168 1.227054
Pattern_4 1.199780 1.226369 1.292833 1.256058 1.327508 1.278862
Pattern_4 1.142965 1.156775 1.060956 1.051280 0.938141 0.907822
Pattern_4 0.764884 0.678064 0.594435 0.543126 0.533299 0.472589
Pattern_4 0.488333 0.541915 0.585098 0.631393 0.712993 0.753825
Pattern_4 0.916954 1.053868 1.154621 1.222849 1.288507 1.325826
Pattern_4 1.574263 1.528364 1.662215 1.640908 1.677831 1.605899
Pattern_4 1.539564 1.466833 1.379319 1.230117 1.240398 1.161459
Pattern_4 1.192827 1.090842 1.220696 1.191784 1.205490 1.192985
Pattern_4 1.260429 1.233381 1.336304 1.296905 1.325323 1.262298
Pattern_4 1.226182 1.263229 1.149432 1.041224 1.044569 0.935045
Pattern_4 0.773633 0.784442 0.612555 0.547341 0.529183 0.500457
Pattern_4 0.492785 0.503451 0.580817 0.586752 0.655645 0.822958
Pattern_4 0.949763 0.960003 1.075417 1.282138 1.333399 1.332334
Pattern_4 1.372573 1.516678 1.465501 1.643283 1.534441 1.437129
Pattern_4 1.469125 1.377346 1.262758 1.243867 1.277196 1.231937
Pattern_4 1.138045 1.228731 1.208968 1.230254 1.205010 1.166205
Pattern_4 1.242141 1.283484 1.302808 1.488929 1.378569 1.370075
Pattern_4 1.216682 1.399699 1.212073 1.113786 0.921030 0.988542
Pattern_4 0.722715 0.721812 0.636533 0.515167 0.494834 0.481320
Pattern_4 0.503824 0.496471 0.602009 0.672558 0.735331 0.760864
Pattern_4 0.997861 1.048777 1.200772 1.237280 1.255932 1.390941
Pattern_4 1.492859 1.498326 1.576556 1.587540 1.610665 1.495015
Pattern_4 1.538182 1.397854 1.377799 1.342950 1.347659 1.248218
Pattern_4 1.343333 1.300610 1.213680 1.179804 1.204547 1.202880
Pattern_4 1.384605 1.222151 1.361720 1.358773 1.320299 1.276995
Pattern_4 1.334899 1.264653 1.143844 1.004365 0.995693 0.916704
Pattern_4 0.764371 0.751225 0.599005 0.578839 0.529907 0.497851
Pattern_4 0.497053 0.508637 0.623202 0.671450 0.713624 0.856850
Pattern_4 0.948596 1.196055 1.228625 1.368115 1.437374 1.514122
Pattern_4 1.537473 1.372747 1.522126 1.461454 1.586688 1.315027
Pattern_4 1.344413 1.363604 1.291185 1.294245 1.273027 1.308503
Pattern_4 1.218161 1.162543 1.210627 1.317534 1.342919 1.265813
Pattern_4 1.330535 1.410195 1.356869 1.433625 1.207702 1.332129
Pattern_4 1.465297 1.233786 1.216459 1.168514 1.034798 0.976191
Pattern_4 0.869771 0.718992 0.672300 0.616445 0.548294 0.512954
Pattern_4 0.517353 0.567502 0.614120 0.706335 0.889122 0.953399
Pattern_4 1.070039 1.321863 1.491728 1.499275 1.423337 1.550975
Pattern_4 1.661644 1.717702 1.684608 1.722970 1.687383 1.703229
Pattern_4 1.619510 1.581412 1.449887 1.445394 1.461418 1.379869
Pattern_4 1.265355 1.298954 1.274480 1.216082 1.222950 1.376115
Pattern_4 1.307470 1.332028 1.411553 1.291862 1.464791 1.257342
Pattern_4 1.349787 1.080995 1.098107 1.041632 1.003798 0.934525
Pattern_4 0.861071 0.827914 0.717175 0.674219 0.602620 0.577425
Pattern_4 0.541144 0.562065 0.531151 0.597723 0.681423 0.744897
Pattern_4 0.805444 0.879965 0.919108 1.041165 1.233213 1.276637
Pattern_4 1.249505 1.444644 1.368308 1.465980 1.470320 1.343440
Pattern_4 1.487284 1.433218 1.330264 1.486733 1.434089 1.408522
Pattern_4 1.355916 1.312682 1.324383 1.260259 1.331803 1.302052
Pattern_4 1.308734 1.167628 1.263327 1.272909 1.175519 1.113792
Pattern_4 1.097701 1.080431 0.902009 1.009480 0.915536 0.808604
Pattern_4 0.803314 0.726826 0.669392 0.644404 0.563490 0.623491
Pattern_4 0.567126 0.530993 0.537415 0.537316 0.539941 0.648596
Pattern_4 0.627857 0.723989 0.851647 0.943704 0.953544 1.060525
Pattern_4 1.145436 1.215714 1.287255 1.309275 1.152899 1.365688
Pattern_4 1.311257 1.370118 1.304259 1.262762 1.373188 1.307971
Pattern_4 1.199293 1.181303 1.230238 1.196754 1.158290 1.133339
Pattern_4 1.113092 1.281380 1.202567 1.325619 1.182473 1.271657
Pattern_4 1.283458 1.149614 0.938010 1.029553 0.931460 0.857315
Pattern_4 0.768740 0.666358 0.650576 0.526251 0.470272 0.506586
Pattern_4 0.511296 0.506908 0.548255 0.600539 0.710413 0.831452
Pattern_4 0.990109 1.032917 1.169257 1.250172 1.361177 1.426845
Pattern_4 1.461752 1.714008 1.669910 1.604596 1.611383 1.776175
Pattern_4 1.590375 1.410135 1.395918 1.373034 1.318685 1.382144
Pattern_4 1.205561 1.273773 1.148290 1.140374 1.195199 1.224571
Pattern_4 1.244124 1.300032 1.297681 1.227968 1.306756 1.400810
Pattern_4 1.386433 1.172964 1.019444 1.145005 1.103574 0.871622
Pattern_4 0.838709 0.748375 0.652583 0.611193 0.539351 0.505305
Pattern_4 0.506795 0.510369 0.596028 0.642582 0.697791 0.829981
Pattern_4 0.870330 1.091779 1.138853 1.183896 1.292780 1.455315
Pattern_4 1.531345 1.524515 1.575730 1.442874 1.522480 1.546595
Pattern_4 1.480724 1.462513 1.399139 1.264052 1.284792 1.210228
Pattern_4 1.298953 1.191927 1.075981 1.231128 1.254251 1.218451
Pattern_4 1.243355 1.271868 1.270272 1.376372 1.500965 1.459325
Pattern_4 1.431246 1.333690 1.194103 1.057741 1.015045 0.877797
Pattern_4 0.811454 0.707039 0.671093 0.576360 0.478879 0.498813
Pattern_4 0.511427 0.501152 0.575259 0.657370 0.742680 0.865330
Pattern_4 0.971978 1.136995 1.315547 1.224318 1.442138 1.388143
Pattern_4 1.510352 1.719466 1.611986 1.612510 1.543313 1.584065
Pattern_4 1.665468 1.532447 1.361198 1.413499 1.434560 1.213152
Pattern_4 1.325843 1.342813 1.281588 1.227749 1.282506 1.332715
Pattern_4 1.482981 1.433919 1.384354 1.426773 1.350891 1.413423
Pattern_4 1.414893 1.346352 1.129754 1.134725 1.038128 0.839990
Pattern_4 0.839349 0.724873 0.610008 0.613691 0.481166 0.498757
Pattern_4 0.529633 0.524162 0.579467 0.694424 0.818166 0.836903
Pattern_4 0.924749 1.116320 1.226465 1.309647 1.284452 1.376669
Pattern_4 1.535548 1.556524 1.433432 1.600484 1.456330 1.514314
Pattern_4 1.395448 1.493815 1.352998 1.345412 1.384205 1.246353
Pattern_4 1.233564 1.310941 1.211190 1.310667 1.328125 1.341207
Pattern_4 1.217426 1.340315 1.490737 1.219988 1.243478 1.455696
Pattern_4 1.258149 1.182953 1.236121 1.156791 1.071721 0.982353
Pattern_4 0.869407 0.759199 0.667774 0.592695 0.515097 0.536087
Pattern_4 0.575021 0.576567 0.639595 0.761490 0.898936 0.941507
Pattern_4 1.089449 1.339279 1.467072 1.425375 1.685679 1.683181
Pattern_4 1.763629 1.809530 1.793660 1.776464 1.816183 1.719795
Pattern_4 1.504659 1.537367 1.563656 1.510593 1.328976 1.318202
Pattern_4 1.293052 1.352155 1.277532 1.353858 1.296946 1.327147
Pattern_4 1.480123 1.465387 1.458761 1.352051 1.279576 1.276248
Pattern_4 1.277010 1.285285 1.172009 1.092632 1.095882 0.933592
Pattern_4 0.945356 0.853179 0.798388 0.661175 0.603674 0.613017