; Filename: ../Network_Originals/Hanoi_CMH.inp
; WNTR: 0.4.0
; Created: 2022-11-16 12:23:46
[TITLE]

[JUNCTIONS]
;ID                      Elevation       Demand Pattern                 
 2                                 30          247.22 Pattern_2                  ;
 3                                 30          236.11 Pattern_3                  ;
 4                                 30           36.11 Pattern_4                  ;
 5                                 30          201.39 Pattern_5                  ;
 6                                 30          279.17 Pattern_6                  ;
 7                                 30             375 Pattern_7                  ;
 8                                 30          152.78 Pattern_8                  ;
 9                                 30          145.83 Pattern_9                  ;
 10                                30          145.83 Pattern_10                 ;
 11                                30          138.89 Pattern_11                 ;
 12                                30          155.56 Pattern_12                 ;
 13                                30          261.11 Pattern_13                 ;
 14                                30          170.83 Pattern_14                 ;
 15                                30           77.78 Pattern_15                 ;
 16                                30           86.11 Pattern_16                 ;
 17                                30          240.28 Pattern_17                 ;
 18                                30          373.61 Pattern_18                 ;
 19                                30           16.67 Pattern_19                 ;
 20                                30          354.17 Pattern_20                 ;
 21                                30          258.33 Pattern_21                 ;
 22                                30          134.72 Pattern_22                 ;
 23                                30          290.28 Pattern_23                 ;
 24                                30          227.78 Pattern_24                 ;
 25                                30           47.22 Pattern_25                 ;
 26                                30             250 Pattern_26                 ;
 27                                30          102.78 Pattern_27                 ;
 28                                30           80.56 Pattern_28                 ;
 29                                30             100 Pattern_29                 ;
 30                                30             100 Pattern_30                 ;
 31                                30           29.17 Pattern_31                 ;
 32                                30          223.61 Pattern_32                 ;

[RESERVOIRS]
;ID                                   Head                  Pattern
 1                                100                            ;

[TANKS]
;ID                              Elevation           Init Level            Min Level            Max Level             Diameter           Min Volume Volume Curve         Overflow            

[PIPES]
;ID                   Node1                Node2                              Length             Diameter            Roughness           Minor Loss               Status
 1                    1                    2                                100            1016             130               0                 Open   ;
 2                    2                    3                               1350            1016             130               0                 Open   ;
 3                    3                    4                                900            1016             130               0                 Open   ;
 4                    4                    5                               1150            1016             130               0                 Open   ;
 5                    5                    6                               1450            1016             130               0                 Open   ;
 6                    6                    7                                450            1016             130               0                 Open   ;
 7                    7                    8                                850            1016             130               0                 Open   ;
 8                    8                    9                                850            1016             130               0                 Open   ;
 9                    9                    10                               800            1016             130               0                 Open   ;
 10                   10                   11                               950             762             130               0                 Open   ;
 11                   11                   12                              1200             762             130               0                 Open   ;
 12                   12                   13                              3500           609.6             130               0                 Open   ;
 13                   10                   14                               800           406.4             130               0                 Open   ;
 14                   14                   15                               500           406.4             130               0                 Open   ;
 15                   15                   16                               550           304.8             130               0                 Open   ;
 16                   17                   16                              2730           406.4             130               0                 Open   ;
 17                   17                   18                              1750             508             130               0                 Open   ;
 18                   18                   19                               800           609.6             130               0                 Open   ;
 19                   19                   3                                400           609.6             130               0                 Open   ;
 20                   3                    20                              2200            1016             130               0                 Open   ;
 21                   20                   21                              1500             508             130               0                 Open   ;
 22                   21                   22                               500           304.8             130               0                 Open   ;
 23                   20                   23                              2650            1016             130               0                 Open   ;
 24                   23                   24                              1230             762             130               0                 Open   ;
 25                   24                   25                              1300             762             130               0                 Open   ;
 26                   26                   25                               850             508             130               0                 Open   ;
 27                   27                   26                               300           304.8             130               0                 Open   ;
 28                   16                   27                               750           304.8             130               0                 Open   ;
 29                   23                   28                              1500           406.4             130               0                 Open   ;
 30                   28                   29                              2000           406.4             130               0                 Open   ;
 31                   29                   30                              1600           304.8             130               0                 Open   ;
 32                   30                   31                               150           304.8             130               0                 Open   ;
 33                   32                   31                               860           406.4             130               0                 Open   ;
 34                   25                   32                               950             508             130               0                 Open   ;

[PUMPS]
;ID                   Node1                Node2                Properties          

[VALVES]
;ID                   Node1                Node2                            Diameter Type              Setting           Minor Loss

[TAGS]
;type      name       tag       

[DEMANDS]
;ID        Demand     Pattern   

[STATUS]
;ID        Setting   

[PATTERNS]
;ID        Multipliers

Pattern_2 0.740140 0.697557 0.649921 0.601773 0.593403 0.501484
Pattern_2 0.501794 0.474295 0.472488 0.519823 0.571782 0.602359
Pattern_2 0.632722 0.737093 0.749761 0.929707 0.991609 1.129790
Pattern_2 1.099816 1.113854 1.323188 1.273685 1.220999 1.318000
Pattern_2 1.204549 1.350212 1.168851 1.294222 1.156424 1.127052
Pattern_2 1.091675 1.179653 1.149671 1.014497 1.148193 1.308124
Pattern_2 1.248751 1.176242 1.335806 1.300807 1.327692 1.324219
Pattern_2 1.284500 1.211373 1.049346 0.994558 0.964675 0.789469
Pattern_2 0.704080 0.639150 0.538194 0.527981 0.472552 0.473153
Pattern_2 0.403076 0.495201 0.514138 0.598016 0.661752 0.774134
Pattern_2 0.903910 1.020403 1.174428 1.324358 1.357077 1.569672
Pattern_2 1.635283 1.527052 1.534110 1.747840 1.707940 1.579684
Pattern_2 1.538418 1.368368 1.327493 1.260297 1.362818 1.234951
Pattern_2 1.076035 1.001431 1.072063 1.144731 1.059004 1.147267
Pattern_2 1.315138 1.324094 1.378637 1.375216 1.331615 1.407988
Pattern_2 1.276635 1.330027 1.265255 1.108252 1.113340 0.944620
Pattern_2 0.799537 0.682661 0.627891 0.567075 0.475637 0.462140
Pattern_2 0.476814 0.501798 0.560207 0.603470 0.715987 0.847429
Pattern_2 0.925709 1.060719 1.176816 1.356211 1.273961 1.458989
Pattern_2 1.507406 1.683175 1.626383 1.562794 1.432288 1.579145
Pattern_2 1.447491 1.464941 1.256214 1.211199 1.167001 1.108617
Pattern_2 1.160981 1.101521 1.193676 1.169133 1.292416 1.256537
Pattern_2 1.440708 1.293117 1.345897 1.353760 1.373100 1.390347
Pattern_2 1.373327 1.299460 1.273418 1.115636 1.010954 0.912898
Pattern_2 0.879177 0.715690 0.604407 0.488519 0.507305 0.459724
Pattern_2 0.502603 0.526869 0.599515 0.577323 0.823965 0.887115
Pattern_2 1.112635 1.049791 1.132492 1.281074 1.439207 1.388800
Pattern_2 1.421582 1.623266 1.593505 1.619329 1.372448 1.384588
Pattern_2 1.456866 1.414624 1.425695 1.327257 1.359054 1.329915
Pattern_2 1.194485 1.264280 1.154299 1.203108 1.168726 1.221922
Pattern_2 1.480990 1.233672 1.322564 1.437922 1.397836 1.314839
Pattern_2 1.332259 1.343059 1.230887 1.227613 1.018949 0.936073
Pattern_2 0.779067 0.771046 0.614412 0.543748 0.525043 0.475551
Pattern_2 0.458939 0.486259 0.565687 0.598472 0.718966 0.876457
Pattern_2 1.011768 1.111171 1.093749 1.282963 1.423500 1.462472
Pattern_2 1.684040 1.541104 1.500047 1.519495 1.400478 1.532702
Pattern_2 1.437760 1.389220 1.309930 1.236193 1.239585 1.237936
Pattern_2 1.134907 1.125106 1.103182 1.261046 1.187638 1.268874
Pattern_2 1.281778 1.362526 1.388709 1.426249 1.425129 1.275948
Pattern_2 1.394474 1.316396 1.334019 1.158053 1.026473 1.045231
Pattern_2 0.855378 0.750749 0.588951 0.542424 0.531134 0.472071
Pattern_2 0.473364 0.493114 0.624969 0.679488 0.854239 0.997786
Pattern_2 1.052006 1.319194 1.319418 1.575970 1.680764 1.842701
Pattern_2 1.761810 1.644014 1.933856 1.784924 1.774010 1.594171
Pattern_2 1.608911 1.450080 1.454292 1.391105 1.407037 1.323138
Pattern_2 1.302920 1.345411 1.288269 1.347398 1.237146 1.332363
Pattern_2 1.336780 1.344409 1.400084 1.321316 1.346410 1.452667
Pattern_2 1.287949 1.240415 1.248602 1.115681 1.078282 0.999365
Pattern_2 0.931230 0.744914 0.760538 0.678138 0.623932 0.600110
Pattern_2 0.512916 0.519343 0.525212 0.523350 0.685465 0.726776
Pattern_2 0.835484 0.826287 1.048114 1.231366 1.213424 1.285344
Pattern_2 1.376036 1.422902 1.556673 1.556023 1.417382 1.588571
Pattern_2 1.300702 1.381027 1.281381 1.410318 1.277068 1.295717
Pattern_2 1.390102 1.419706 1.237298 1.382289 1.483987 1.272732
Pattern_2 1.287797 1.329038 1.316404 1.466088 1.296681 1.275104
Pattern_2 1.209284 1.134859 1.090286 0.928478 0.929636 0.886350
Pattern_2 0.788478 0.734781 0.699708 0.569941 0.519074 0.554188
Pattern_2 0.485947 0.501860 0.488732 0.492116 0.579969 0.587866
Pattern_2 0.669369 0.707545 0.810790 0.883152 1.069412 1.121853
Pattern_2 1.214814 1.225792 1.339894 1.334496 1.322868 1.464267
Pattern_2 1.231232 1.307492 1.306196 1.201198 1.200287 1.225575
Pattern_2 1.112121 1.182372 1.059626 1.116293 1.217427 1.200830
Pattern_2 1.405602 1.124829 1.325844 1.303684 1.359678 1.273747
Pattern_2 1.407899 1.165741 1.109514 1.112113 0.993091 0.833165
Pattern_2 0.733187 0.636538 0.578409 0.534746 0.461412 0.486528
Pattern_2 0.445147 0.446425 0.508604 0.585928 0.704620 0.825515
Pattern_2 0.905579 1.043834 1.217319 1.235034 1.443934 1.562581
Pattern_2 1.750619 1.681913 1.611528 1.651032 1.636867 1.711605
Pattern_2 1.577984 1.480590 1.364953 1.283050 1.338949 1.054505
Pattern_2 1.041287 1.059330 1.091698 1.139295 1.193671 1.047800
Pattern_2 1.162623 1.418853 1.294989 1.328998 1.414523 1.428552
Pattern_2 1.333682 1.325942 1.323628 1.146209 1.155250 0.984483
Pattern_2 0.791700 0.713399 0.580071 0.551262 0.504692 0.488601
Pattern_2 0.450407 0.470034 0.594677 0.599236 0.750623 0.850220
Pattern_2 0.915778 1.160275 1.220269 1.276370 1.434061 1.452500
Pattern_2 1.420451 1.626007 1.695608 1.761297 1.703848 1.431843
Pattern_2 1.587327 1.416199 1.258183 1.250896 1.262276 1.140207
Pattern_2 1.184520 1.134695 1.079768 1.213492 1.345837 1.257337
Pattern_2 1.402085 1.406784 1.406311 1.342547 1.360833 1.404686
Pattern_2 1.420598 1.420231 1.264913 1.107298 0.999086 0.974255
Pattern_2 0.810544 0.725084 0.612364 0.529999 0.489251 0.482552
Pattern_2 0.463583 0.509347 0.579934 0.659277 0.750877 0.911374
Pattern_2 0.968330 1.080597 1.299415 1.292813 1.436067 1.473787
Pattern_2 1.460164 1.527184 1.695110 1.587916 1.444701 1.487310
Pattern_2 1.469362 1.320808 1.400197 1.499652 1.222993 1.242980
Pattern_2 1.302390 1.131611 1.296440 1.247221 1.263588 1.341534
Pattern_2 1.360670 1.498871 1.489784 1.254502 1.366658 1.332358
Pattern_2 1.441075 1.393470 1.286979 1.139541 1.068886 0.982065
Pattern_2 0.826777 0.733375 0.611518 0.568254 0.499590 0.453794
Pattern_2 0.471668 0.511700 0.595190 0.634935 0.749906 0.874748
Pattern_2 0.994517 1.151149 1.227658 1.328466 1.441454 1.456661
Pattern_2 1.566441 1.466057 1.563623 1.647683 1.380968 1.454904
Pattern_2 1.540665 1.435853 1.292731 1.301636 1.335772 1.231480
Pattern_2 1.256288 1.201821 1.157976 1.252360 1.218501 1.358299
Pattern_2 1.237657 1.381567 1.488045 1.441382 1.466346 1.341756
Pattern_2 1.489815 1.206696 1.307165 1.111247 1.153848 1.003477
Pattern_2 0.816702 0.742928 0.718762 0.547274 0.566148 0.508462
Pattern_2 0.518860 0.537082 0.596298 0.659908 0.794711 0.956323
Pattern_2 1.111474 1.369424 1.428792 1.632242 1.666371 1.604599
Pattern_2 1.833173 1.656780 1.815810 1.684283 1.665716 1.768537
Pattern_2 1.480622 1.471871 1.421925 1.429907 1.291911 1.399668
Pattern_2 1.235875 1.166417 1.269196 1.373236 1.303513 1.312925
Pattern_2 1.401387 1.450436 1.388901 1.392499 1.370274 1.336931
Pattern_2 1.244482 1.261757 1.169819 1.097866 1.101733 1.010383
Pattern_2 0.896029 0.803570 0.704488 0.681917 0.615370 0.567283
Pattern_2 0.533680 0.496167 0.526483 0.617616 0.615981 0.769121
Pattern_2 0.828063 0.873012 1.002795 1.185677 1.204335 1.371134
Pattern_2 1.304605 1.502324 1.512157 1.475081 1.488294 1.374173
Pattern_2 1.544840 1.460011 1.436605 1.302674 1.193475 1.394981
Pattern_2 1.274862 1.331182 1.291151 1.290606 1.405641 1.383859
Pattern_2 1.464059 1.242371 1.385768 1.365508 1.252773 1.379812
Pattern_2 1.133079 1.186751 1.101737 1.000666 0.953867 0.840478
Pattern_2 0.790186

Pattern_3 0.768735 0.669171 0.664254 0.649674 0.629932 0.629623
Pattern_3 0.553342 0.541923 0.554192 0.554110 0.552790 0.625949
Pattern_3 0.611638 0.734961 0.759443 0.844661 0.880747 1.039095
Pattern_3 1.034043 1.094035 1.246601 1.279375 1.302351 1.292284
Pattern_3 1.184771 1.365792 1.329279 1.180366 1.188223 1.152167
Pattern_3 1.109898 1.027693 1.095241 1.084241 1.128382 1.073786
Pattern_3 1.166696 1.084700 1.124303 1.080677 1.130167 1.203559
Pattern_3 1.179081 1.163406 1.000241 1.017646 0.945253 0.908448
Pattern_3 0.823183 0.651626 0.575851 0.586244 0.509713 0.504430
Pattern_3 0.508790 0.522231 0.604962 0.648395 0.694344 0.872658
Pattern_3 1.020257 1.112381 1.113202 1.316885 1.362912 1.402214
Pattern_3 1.678850 1.624523 1.611660 1.520048 1.604796 1.577699
Pattern_3 1.395508 1.457845 1.266318 1.226868 1.255738 1.160398
Pattern_3 1.104542 1.113595 1.102587 1.072540 1.098608 1.136553
Pattern_3 1.218928 1.256381 1.322159 1.264030 1.287943 1.321032
Pattern_3 1.396149 1.246873 1.213766 1.142432 0.935333 0.922319
Pattern_3 0.835933 0.714872 0.651884 0.577670 0.506927 0.488162
Pattern_3 0.515515 0.587992 0.557069 0.685218 0.762370 0.862459
Pattern_3 0.936332 1.030090 1.073417 1.303361 1.288569 1.468599
Pattern_3 1.592273 1.539245 1.608154 1.553948 1.458978 1.448944
Pattern_3 1.468113 1.329213 1.250128 1.226285 1.266846 1.214074
Pattern_3 1.225960 1.192865 1.171431 1.107705 1.253119 1.086071
Pattern_3 1.181706 1.213717 1.328054 1.365045 1.412534 1.319792
Pattern_3 1.284818 1.298918 1.186058 1.169627 0.935962 0.924363
Pattern_3 0.796336 0.722550 0.605991 0.588484 0.504909 0.538015
Pattern_3 0.534083 0.551767 0.567023 0.765311 0.795053 0.927822
Pattern_3 0.989179 1.078373 1.155337 1.262074 1.451242 1.449434
Pattern_3 1.459582 1.537321 1.425904 1.408356 1.312781 1.636764
Pattern_3 1.398919 1.333560 1.356969 1.206994 1.261856 1.309222
Pattern_3 1.346769 1.282477 1.136794 1.176157 1.275738 1.260495
Pattern_3 1.244493 1.323320 1.256611 1.420537 1.248670 1.319279
Pattern_3 1.305276 1.235866 1.202476 1.077285 1.057114 0.975556
Pattern_3 0.796097 0.723563 0.657511 0.499577 0.536304 0.547430
Pattern_3 0.488179 0.458375 0.564779 0.659898 0.703473 0.879775
Pattern_3 1.018946 1.175131 1.186741 1.354048 1.404304 1.430294
Pattern_3 1.656215 1.374761 1.502605 1.458891 1.391827 1.494344
Pattern_3 1.406714 1.420985 1.247953 1.279232 1.246030 1.276823
Pattern_3 1.150100 1.182769 1.178238 1.253487 1.248924 1.298265
Pattern_3 1.307135 1.240799 1.316613 1.333635 1.344618 1.345533
Pattern_3 1.391224 1.234643 1.094356 1.163606 1.083439 0.923724
Pattern_3 0.819655 0.792093 0.682751 0.562361 0.559729 0.538045
Pattern_3 0.531645 0.544780 0.591286 0.731135 0.808658 0.996172
Pattern_3 1.196114 1.339555 1.466498 1.464717 1.531932 1.676480
Pattern_3 1.861410 1.821321 1.858089 1.619883 1.602661 1.681948
Pattern_3 1.655549 1.440240 1.571539 1.318150 1.195758 1.227681
Pattern_3 1.272101 1.291495 1.280414 1.261124 1.233770 1.352333
Pattern_3 1.367129 1.357745 1.367788 1.220237 1.310745 1.324741
Pattern_3 1.221677 1.258577 1.147093 1.061966 1.023156 0.969381
Pattern_3 0.873738 0.769130 0.749357 0.701375 0.622651 0.565388
Pattern_3 0.514312 0.583291 0.554940 0.566920 0.687854 0.728116
Pattern_3 0.826825 0.895176 1.011908 1.049254 1.136121 1.313565
Pattern_3 1.234275 1.393134 1.547871 1.621400 1.490838 1.521100
Pattern_3 1.489861 1.427046 1.325585 1.258291 1.396372 1.354458
Pattern_3 1.251929 1.337923 1.355033 1.326876 1.344197 1.456711
Pattern_3 1.368445 1.193160 1.303334 1.249428 1.269841 1.119950
Pattern_3 1.201647 1.158518 1.088791 0.900196 0.856079 0.828365
Pattern_3 0.745327 0.792961 0.708686 0.614363 0.566054 0.532058
Pattern_3 0.559304 0.591529 0.579650 0.582150 0.616029 0.576428
Pattern_3 0.630499 0.736325 0.742613 0.899893 1.009708 1.089804
Pattern_3 1.161763 1.147049 1.368052 1.295370 1.331841 1.422526
Pattern_3 1.129211 1.371173 1.247872 1.258741 1.228289 1.158332
Pattern_3 1.316287 1.165035 1.157358 1.237017 1.201697 1.234674
Pattern_3 1.218674 1.236067 1.218832 1.243087 1.281916 1.300626
Pattern_3 1.230230 1.201992 1.079597 1.023600 0.954018 0.875346
Pattern_3 0.786985 0.738565 0.624469 0.590926 0.523432 0.531921
Pattern_3 0.527641 0.542902 0.570958 0.679282 0.776436 0.832912
Pattern_3 0.979293 1.066394 1.201694 1.318070 1.366104 1.435917
Pattern_3 1.466744 1.706841 1.686725 1.685388 1.563655 1.619054
Pattern_3 1.535776 1.540292 1.350942 1.377754 1.290537 1.200923
Pattern_3 1.170292 1.012558 1.209134 1.177504 1.250300 1.196872
Pattern_3 1.197039 1.256983 1.299355 1.447566 1.270798 1.417229
Pattern_3 1.502516 1.299743 1.319447 1.197671 1.049392 0.968778
Pattern_3 0.835658 0.749460 0.695169 0.622615 0.526067 0.524820
Pattern_3 0.560106 0.564567 0.650998 0.673142 0.720937 0.801766
Pattern_3 0.956977 1.097032 1.184336 1.451523 1.269689 1.358658
Pattern_3 1.510675 1.538434 1.599560 1.551810 1.462003 1.493630
Pattern_3 1.339571 1.335765 1.221154 1.300680 1.269833 1.278069
Pattern_3 1.119002 1.178122 1.203345 1.137003 1.241918 1.173029
Pattern_3 1.213096 1.324803 1.259637 1.337525 1.343668 1.385184
Pattern_3 1.280986 1.327200 1.109179 1.167986 1.116762 0.920026
Pattern_3 0.771817 0.688777 0.628580 0.529065 0.535596 0.465022
Pattern_3 0.499597 0.581945 0.625965 0.711427 0.832906 0.879909
Pattern_3 0.968064 1.085521 1.206050 1.149276 1.315612 1.499532
Pattern_3 1.566776 1.491486 1.594451 1.624781 1.438396 1.516878
Pattern_3 1.582897 1.433590 1.482514 1.370282 1.359285 1.261867
Pattern_3 1.283597 1.216183 1.117202 1.174316 1.337157 1.208954
Pattern_3 1.130316 1.459461 1.227177 1.229860 1.334063 1.362492
Pattern_3 1.354849 1.260712 1.235978 1.124476 1.079195 0.851935
Pattern_3 0.820218 0.732317 0.661886 0.540235 0.495652 0.497141
Pattern_3 0.503288 0.549843 0.550354 0.609446 0.803992 0.890113
Pattern_3 1.038396 1.049073 1.253580 1.317387 1.441673 1.458903
Pattern_3 1.637428 1.631090 1.528458 1.538426 1.589833 1.349941
Pattern_3 1.385307 1.297963 1.213384 1.406224 1.175156 1.325614
Pattern_3 1.278682 1.257031 1.281699 1.320222 1.152182 1.277575
Pattern_3 1.178594 1.374546 1.421068 1.449393 1.364210 1.298712
Pattern_3 1.279465 1.348599 1.262717 1.176362 1.138188 0.986395
Pattern_3 0.929524 0.829098 0.637837 0.623604 0.508214 0.562068
Pattern_3 0.540780 0.585501 0.680981 0.725608 0.938258 1.071678
Pattern_3 1.105646 1.363246 1.496010 1.443151 1.707792 1.606387
Pattern_3 1.676914 1.878766 1.755117 1.790861 1.646820 1.636674
Pattern_3 1.541518 1.425589 1.527936 1.443650 1.347578 1.321385
Pattern_3 1.282692 1.331131 1.276662 1.399639 1.302481 1.416466
Pattern_3 1.321892 1.294120 1.416782 1.255882 1.257571 1.268900
Pattern_3 1.283375 1.199207 1.205726 1.135440 0.999740 0.986783
Pattern_3 0.965868 0.881020 0.787099 0.662896 0.663007 0.570140
Pattern_3 0.504692 0.513654 0.627387 0.637952 0.645445 0.756023
Pattern_3 0.889514 0.945303 1.049553 1.108610 1.298767 1.243455
Pattern_3 1.403628 1.453333 1.393663 1.414035 1.462062 1.487775
Pattern_3 1.385732 1.454697 1.509302 1.335593 1.438839 1.205212
Pattern_3 1.371437 1.272223 1.340560 1.166895 1.322913 1.288690
Pattern_3 1.344582 1.290405 1.338885 1.215327 1.219167 1.279750
Pattern_3 1.165658 1.080575 0.992514 0.966852 0.879433 0.837399
Pattern_3 0.819275

Pattern_4 0.739707 0.662982 0.724018 0.712611 0.658630 0.642958
Pattern_4 0.591282 0.580098 0.650793 0.632889 0.576808 0.644248
Pattern_4 0.625039 0.820472 0.831110 0.951497 0.995994 1.024227
Pattern_4 1.169877 1.307097 1.293901 1.308987 1.212410 1.316876
Pattern_4 1.325317 1.347254 1.246066 1.246613 1.331187 1.153968
Pattern_4 1.203622 1.184187 1.214367 1.110791 1.153670 1.158022
Pattern_4 1.185139 1.163917 1.133340 1.242603 1.203271 1.142734
Pattern_4 1.207427 1.113554 1.071808 1.061696 0.872711 0.797245
Pattern_4 0.739863 0.680879 0.665205 0.575220 0.555758 0.569536
Pattern_4 0.524522 0.546174 0.591218 0.616119 0.725318 0.828957
Pattern_4 0.978863 1.023088 1.207116 1.223681 1.371396 1.557300
Pattern_4 1.569670 1.548562 1.532299 1.551574 1.526416 1.632888
Pattern_4 1.589713 1.413535 1.406558 1.239371 1.256136 1.203456
Pattern_4 1.181253 1.056043 1.036731 0.990578 1.179382 1.269686
Pattern_4 1.148675 1.240787 1.365112 1.307216 1.304810 1.413345
Pattern_4 1.448545 1.194760 1.266525 1.120440 0.917303 0.905249
Pattern_4 0.839043 0.766885 0.709314 0.641528 0.583758 0.524247
Pattern_4 0.506900 0.579958 0.663716 0.737491 0.807572 0.836996
Pattern_4 1.032942 1.114418 1.155254 1.222101 1.318567 1.362216
Pattern_4 1.463473 1.538925 1.534646 1.602953 1.401869 1.603067
Pattern_4 1.517973 1.246507 1.322521 1.277049 1.217439 1.158914
Pattern_4 1.295752 1.161856 1.182383 1.137877 1.189863 1.249256
Pattern_4 1.252597 1.393147 1.347569 1.302084 1.380672 1.468545
Pattern_4 1.289098 1.251153 1.204278 1.095070 0.928643 0.883846
Pattern_4 0.786579 0.672517 0.583113 0.597573 0.494101 0.517414
Pattern_4 0.555674 0.591533 0.621868 0.685710 0.798179 0.832341
Pattern_4 0.994247 1.076413 1.232737 1.418942 1.340612 1.551410
Pattern_4 1.507556 1.563144 1.461692 1.500787 1.535930 1.458558
Pattern_4 1.538114 1.381714 1.350706 1.400838 1.259731 1.282680
Pattern_4 1.222589 1.357160 1.199064 1.303543 1.238375 1.281552
Pattern_4 1.354967 1.279138 1.377500 1.300547 1.447264 1.400282
Pattern_4 1.269539 1.187900 1.251437 1.173088 1.066511 1.020047
Pattern_4 0.783460 0.734475 0.698670 0.603017 0.561480 0.555072
Pattern_4 0.566879 0.608697 0.678213 0.708757 0.742595 0.972642
Pattern_4 1.063566 0.945145 1.186540 1.258958 1.389414 1.413598
Pattern_4 1.428646 1.547274 1.567206 1.629006 1.569565 1.376803
Pattern_4 1.417943 1.326302 1.273474 1.201912 1.251757 1.232546
Pattern_4 1.151864 1.235947 1.120795 1.171856 1.238968 1.166241
Pattern_4 1.336344 1.198206 1.312134 1.307458 1.314308 1.294492
Pattern_4 1.217697 1.104993 1.270413 1.077885 0.986784 0.996463
Pattern_4 0.893898 0.810273 0.714664 0.627490 0.577118 0.612816
Pattern_4 0.537745 0.563018 0.732047 0.767007 0.845349 0.998956
Pattern_4 1.069618 1.228421 1.309511 1.439173 1.594427 1.468529
Pattern_4 1.699773 1.864597 1.786228 1.608871 1.576557 1.675748
Pattern_4 1.564022 1.491918 1.416132 1.349235 1.410394 1.372244
Pattern_4 1.236650 1.182991 1.313144 1.270864 1.229396 1.286310
Pattern_4 1.359620 1.378641 1.350698 1.304310 1.303793 1.334721
Pattern_4 1.198389 1.150097 1.140255 1.045401 1.067483 0.956936
Pattern_4 0.855248 0.868477 0.843768 0.790462 0.675607 0.649995
Pattern_4 0.611943 0.548368 0.701695 0.674328 0.718227 0.826966
Pattern_4 0.829434 0.905528 0.958373 1.172452 1.141029 1.275171
Pattern_4 1.303273 1.361132 1.528900 1.412629 1.488962 1.331461
Pattern_4 1.606080 1.531277 1.378454 1.377298 1.407180 1.228491
Pattern_4 1.325364 1.351855 1.370444 1.454543 1.306777 1.328413
Pattern_4 1.361854 1.371935 1.341336 1.254958 1.172021 1.222867
Pattern_4 1.062765 1.088436 1.120311 1.000483 0.913196 0.941530
Pattern_4 0.818524 0.742615 0.732103 0.698397 0.637578 0.664709
Pattern_4 0.620709 0.597802 0.592553 0.600853 0.633277 0.719934
Pattern_4 0.698373 0.739878 0.837621 0.952249 1.031819 1.015073
Pattern_4 1.190508 1.157639 1.373791 1.326480 1.321355 1.499008
Pattern_4 1.418286 1.345059 1.348357 1.385658 1.355148 1.238221
Pattern_4 1.145862 1.143668 1.196072 1.147682 1.149938 1.263012
Pattern_4 1.179247 1.179653 1.221016 1.254397 1.221311 1.143220
Pattern_4 1.231244 1.242673 1.045919 1.033838 0.947278 0.953552
Pattern_4 0.754880 0.646345 0.611128 0.594935 0.564316 0.543542
Pattern_4 0.579163 0.611213 0.628519 0.648721 0.783115 0.850633
Pattern_4 1.014254 1.149147 1.092870 1.237657 1.573717 1.504069
Pattern_4 1.558557 1.631602 1.525858 1.659624 1.690654 1.549407
Pattern_4 1.343729 1.430227 1.455098 1.222800 1.252754 1.213997
Pattern_4 1.143171 1.101736 1.076624 1.153384 1.206396 1.247609
Pattern_4 1.221424 1.309128 1.259928 1.484822 1.382988 1.377326
Pattern_4 1.305516 1.233656 1.223409 1.150603 0.976898 0.935672
Pattern_4 0.811384 0.740926 0.672313 0.611807 0.566199 0.575432
Pattern_4 0.530636 0.603775 0.608810 0.747208 0.762952 0.864477
Pattern_4 1.036390 1.111573 1.169421 1.345066 1.397095 1.530217
Pattern_4 1.471791 1.508066 1.443002 1.579594 1.413447 1.287237
Pattern_4 1.385158 1.413546 1.399088 1.366429 1.250396 1.211260
Pattern_4 1.193633 1.212688 1.343789 1.122032 1.299522 1.262111
Pattern_4 1.207969 1.340114 1.439406 1.343161 1.414293 1.429761
Pattern_4 1.240442 1.195448 1.206969 1.260338 0.999078 0.951606
Pattern_4 0.833993 0.721885 0.644800 0.606929 0.574022 0.593061
Pattern_4 0.504860 0.624711 0.674920 0.719358 0.807727 0.903450
Pattern_4 1.024642 1.092753 1.299887 1.306938 1.383339 1.452285
Pattern_4 1.518476 1.596527 1.449874 1.494878 1.578534 1.573633
Pattern_4 1.460855 1.525484 1.493418 1.229294 1.341224 1.347902
Pattern_4 1.271378 1.246926 1.203688 1.312857 1.359474 1.377101
Pattern_4 1.326100 1.253947 1.283074 1.314405 1.429778 1.303245
Pattern_4 1.324929 1.244659 1.196885 1.190201 1.042345 0.876965
Pattern_4 0.810775 0.721852 0.631116 0.644427 0.551665 0.547325
Pattern_4 0.576339 0.567198 0.634872 0.737316 0.831836 0.973014
Pattern_4 1.024698 1.191091 1.264123 1.333310 1.436961 1.558452
Pattern_4 1.406187 1.333726 1.555536 1.516801 1.404336 1.610805
Pattern_4 1.357091 1.470153 1.493495 1.281772 1.287002 1.390609
Pattern_4 1.178701 1.230963 1.253325 1.247482 1.253157 1.291986
Pattern_4 1.141701 1.311790 1.387511 1.264992 1.271680 1.419099
Pattern_4 1.289860 1.140600 1.199956 1.062600 1.079631 0.965269
Pattern_4 0.927179 0.755677 0.687399 0.681756 0.555571 0.610587
Pattern_4 0.591578 0.587107 0.674205 0.777533 0.894421 1.012785
Pattern_4 1.102395 1.260571 1.440484 1.533052 1.560487 1.620604
Pattern_4 1.565306 1.813864 1.871831 1.531387 1.769821 1.638674
Pattern_4 1.686078 1.502228 1.434372 1.493683 1.272234 1.437994
Pattern_4 1.280333 1.276728 1.284815 1.253084 1.377572 1.447170
Pattern_4 1.223845 1.360438 1.289814 1.339321 1.283105 1.163896
Pattern_4 1.109669 1.185261 1.118818 1.017909 1.141690 0.999239
Pattern_4 0.877148 0.876630 0.820450 0.732149 0.679116 0.611968