; Filename: ../Network_Originals/Hanoi_CMH.inp
; WNTR: 0.4.0
; Created: 2022-11-16 12:31:24
[TITLE]

[JUNCTIONS]
;ID                      Elevation       Demand Pattern                 
 2                                 30          247.22 Pattern_2                  ;
 3                                 30          236.11 Pattern_3                  ;
 4                                 30           36.11 Pattern_4                  ;
 5                                 30          201.39 Pattern_5                  ;
 6                                 30          279.17 Pattern_6                  ;
 7                                 30             375 Pattern_7                  ;
 8                                 30          152.78 Pattern_8                  ;
 9                                 30          145.83 Pattern_9                  ;
 10                                30          145.83 Pattern_10                 ;
 11                                30          138.89 Pattern_11                 ;
 12                                30          155.56 Pattern_12                 ;
 13                                30          261.11 Pattern_13                 ;
 14                                30          170.83 Pattern_14                 ;
 15                                30           77.78 Pattern_15                 ;
 16                                30           86.11 Pattern_16                 ;
 17                                30          240.28 Pattern_17                 ;
 18                                30          373.61 Pattern_18                 ;
 19                                30           16.67 Pattern_19                 ;
 20                                30          354.17 Pattern_20                 ;
 21                                30          258.33 Pattern_21                 ;
 22                                30          134.72 Pattern_22                 ;
 23                                30          290.28 Pattern_23                 ;
 24                                30          227.78 Pattern_24                 ;
 25                                30           47.22 Pattern_25                 ;
 26                                30             250 Pattern_26                 ;
 27                                30          102.78 Pattern_27                 ;
 28                                30           80.56 Pattern_28                 ;
 29                                30             100 Pattern_29                 ;
 30                                30             100 Pattern_30                 ;
 31                                30           29.17 Pattern_31                 ;
 32                                30          223.61 Pattern_32                 ;

[RESERVOIRS]
;ID                                   Head                  Pattern
 1                                100                            ;

[TANKS]
;ID                              Elevation           Init Level            Min Level            Max Level             Diameter           Min Volume Volume Curve         Overflow            

[PIPES]
;ID                   Node1                Node2                              Length             Diameter            Roughness           Minor Loss               Status
 1                    1                    2                                100            1016             130               0                 Open   ;
 2                    2                    3                               1350            1016             130               0                 Open   ;
 3                    3                    4                                900            1016             130               0                 Open   ;
 4                    4                    5                               1150            1016             130               0                 Open   ;
 5                    5                    6                               1450            1016             130               0                 Open   ;
 6                    6                    7                                450            1016             130               0                 Open   ;
 7                    7                    8                                850            1016             130               0                 Open   ;
 8                    8                    9                                850            1016             130               0                 Open   ;
 9                    9                    10                               800            1016             130               0                 Open   ;
 10                   10                   11                               950             762             130               0                 Open   ;
 11                   11                   12                              1200             762             130               0                 Open   ;
 12                   12                   13                              3500           609.6             130               0                 Open   ;
 13                   10                   14                               800           406.4             130               0                 Open   ;
 14                   14                   15                               500           406.4             130               0                 Open   ;
 15                   15                   16                               550           304.8             130               0                 Open   ;
 16                   17                   16                              2730           406.4             130               0                 Open   ;
 17                   17                   18                              1750             508             130               0                 Open   ;
 18                   18                   19                               800           609.6             130               0                 Open   ;
 19                   19                   3                                400           609.6             130               0                 Open   ;
 20                   3                    20                              2200            1016             130               0                 Open   ;
 21                   20                   21                              1500             508             130               0                 Open   ;
 22                   21                   22                               500           304.8             130               0                 Open   ;
 23                   20                   23                              2650            1016             130               0                 Open   ;
 24                   23                   24                              1230             762             130               0                 Open   ;
 25                   24                   25                              1300             762             130               0                 Open   ;
 26                   26                   25                               850             508             130               0                 Open   ;
 27                   27                   26                               300           304.8             130               0                 Open   ;
 28                   16                   27                               750           304.8             130               0                 Open   ;
 29                   23                   28                              1500           406.4             130               0                 Open   ;
 30                   28                   29                              2000           406.4             130               0                 Open   ;
 31                   29                   30                              1600           304.8             130               0                 Open   ;
 32                   30                   31                               150           304.8             130               0                 Open   ;
 33                   32                   31                               860           406.4             130               0                 Open   ;
 34                   25                   32                               950             508             130               0                 Open   ;

[PUMPS]
;ID                   Node1                Node2                Properties          

[VALVES]
;ID                   Node1                Node2                            Diameter Type              Setting           Minor Loss

[TAGS]
;type      name       tag       

[DEMANDS]
;ID        Demand     Pattern   

[STATUS]
;ID        Setting   

[PATTERNS]
;ID        Multipliers

Pattern_2 0.734281 0.750984 0.715871 0.673688 0.628017 0.599844
Pattern_2 0.599853 0.576743 0.575465 0.638008 0.542474 0.593273
Pattern_2 0.686885 0.763190 0.783608 0.880865 0.993490 1.069388
Pattern_2 1.109958 1.255925 1.167597 1.298868 1.319141 1.285726
Pattern_2 1.339451 1.251552 1.286062 1.275555 1.189719 1.302869
Pattern_2 1.170192 1.217500 1.185493 1.189204 1.147988 1.188717
Pattern_2 1.228792 1.199359 1.166772 1.187392 1.244502 1.261651
Pattern_2 1.148675 1.114101 1.067538 1.029103 0.913283 0.872641
Pattern_2 0.772747 0.745490 0.628870 0.605967 0.571127 0.547487
Pattern_2 0.550501 0.559563 0.631934 0.681905 0.773862 0.834170
Pattern_2 0.973554 1.009198 1.163907 1.282404 1.382413 1.364789
Pattern_2 1.603446 1.586801 1.671092 1.548199 1.533083 1.556230
Pattern_2 1.449617 1.425867 1.269035 1.243604 1.232977 1.150380
Pattern_2 1.068223 1.080115 1.063859 1.108015 1.189052 1.268853
Pattern_2 1.241621 1.385212 1.228852 1.439052 1.342887 1.354217
Pattern_2 1.371548 1.314373 1.273492 1.111951 1.019403 0.934267
Pattern_2 0.843442 0.780686 0.671101 0.564181 0.575354 0.602532
Pattern_2 0.583789 0.524889 0.562716 0.681116 0.701837 0.901811
Pattern_2 0.928910 1.087146 1.261384 1.247246 1.348669 1.431513
Pattern_2 1.423949 1.534138 1.425003 1.464033 1.443977 1.423676
Pattern_2 1.220908 1.303358 1.322380 1.245678 1.262861 1.162521
Pattern_2 1.193998 1.146759 1.132291 1.145907 1.299021 1.195682
Pattern_2 1.337745 1.381904 1.315247 1.565378 1.335697 1.321343
Pattern_2 1.351777 1.123794 1.121224 1.142183 0.906515 0.949773
Pattern_2 0.829113 0.734510 0.683549 0.576568 0.603708 0.607078
Pattern_2 0.554391 0.606533 0.664119 0.683262 0.766792 0.835360
Pattern_2 0.871731 1.096818 1.226496 1.273005 1.267383 1.388178
Pattern_2 1.436530 1.409453 1.524755 1.501359 1.390237 1.489786
Pattern_2 1.402775 1.454778 1.319740 1.145540 1.334259 1.278644
Pattern_2 1.233708 1.301590 1.202311 1.105474 1.300713 1.276652
Pattern_2 1.204336 1.349451 1.304552 1.387337 1.398187 1.424459
Pattern_2 1.308282 1.246064 1.225834 1.073695 0.981426 0.983032
Pattern_2 0.875698 0.782543 0.724515 0.613061 0.575741 0.534758
Pattern_2 0.557378 0.586119 0.654898 0.738699 0.807158 0.882014
Pattern_2 1.016471 1.151606 1.186262 1.213097 1.218598 1.343126
Pattern_2 1.297802 1.517329 1.542684 1.332595 1.461518 1.415321
Pattern_2 1.380835 1.210416 1.256776 1.178436 1.312139 1.238110
Pattern_2 1.245451 1.192444 1.154266 1.222605 1.277636 1.278216
Pattern_2 1.293892 1.263530 1.317479 1.341490 1.423522 1.283741
Pattern_2 1.280241 1.279279 1.216057 1.065452 1.106371 0.963266
Pattern_2 0.855615 0.831579 0.741710 0.669933 0.581645 0.558694
Pattern_2 0.607345 0.610029 0.635745 0.801340 0.868455 0.949892
Pattern_2 1.101129 1.184088 1.423157 1.551649 1.714735 1.654520
Pattern_2 1.637160 1.737259 1.746276 1.553404 1.707336 1.584863
Pattern_2 1.564678 1.584979 1.322742 1.321831 1.257115 1.234628
Pattern_2 1.379748 1.230239 1.306631 1.353745 1.356364 1.322433
Pattern_2 1.289355 1.506840 1.322841 1.331688 1.281585 1.448968
Pattern_2 1.175315 1.206786 1.182528 1.206937 0.973984 0.994935
Pattern_2 0.943772 0.874960 0.785238 0.735405 0.640055 0.615324
Pattern_2 0.652901 0.598692 0.645336 0.678454 0.699584 0.719311
Pattern_2 0.867228 0.896309 1.026288 1.079526 1.158700 1.254688
Pattern_2 1.191282 1.378230 1.476651 1.214313 1.518639 1.381458
Pattern_2 1.387575 1.432179 1.457816 1.376371 1.380393 1.290175
Pattern_2 1.280568 1.229895 1.278067 1.301549 1.379827 1.293144
Pattern_2 1.199284 1.374704 1.332839 1.222442 1.244422 1.141504
Pattern_2 1.185296 1.030455 1.029903 0.957674 0.870320 0.837969
Pattern_2 0.790537 0.804243 0.746855 0.705942 0.603529 0.593127
Pattern_2 0.591567 0.617641 0.577943 0.593414 0.626743 0.644021
Pattern_2 0.727748 0.652645 0.825158 0.855900 0.991105 1.051415
Pattern_2 1.098046 1.172794 1.132960 1.372548 1.281882 1.308836
Pattern_2 1.293316 1.195850 1.309462 1.267024 1.298673 1.192041
Pattern_2 1.177980 1.121042 1.172945 1.201029 1.213888 1.299200
Pattern_2 1.349022 1.291500 1.223871 1.175017 1.333087 1.204669
Pattern_2 1.235193 1.214967 1.229332 0.963540 0.946695 0.875610
Pattern_2 0.808048 0.722252 0.651252 0.537283 0.550650 0.558466
Pattern_2 0.531121 0.557662 0.584945 0.671233 0.782702 0.766788
Pattern_2 0.954155 1.021097 1.212774 1.228456 1.389603 1.517742
Pattern_2 1.377089 1.683532 1.652400 1.557336 1.593507 1.668530
Pattern_2 1.370399 1.397214 1.397136 1.225028 1.295422 1.196691
Pattern_2 1.131052 1.159091 1.090429 1.017483 1.212770 1.229080
Pattern_2 1.405547 1.317472 1.313043 1.354031 1.405207 1.485275
Pattern_2 1.268150 1.332229 1.303990 1.216046 0.966880 0.973266
Pattern_2 0.845039 0.754707 0.769247 0.650331 0.572727 0.530945
Pattern_2 0.511628 0.613175 0.581787 0.648341 0.762871 0.956837
Pattern_2 0.998800 0.996563 1.099186 1.231729 1.273585 1.471881
Pattern_2 1.548582 1.517378 1.516179 1.376990 1.628010 1.547823
Pattern_2 1.503613 1.359135 1.230646 1.295764 1.209714 1.192002
Pattern_2 1.207017 1.206758 1.251150 1.170010 1.291852 1.346792
Pattern_2 1.389349 1.512297 1.352619 1.356771 1.253984 1.303810
Pattern_2 1.363020 1.240248 1.244123 1.223588 1.057846 1.012866
Pattern_2 0.769800 0.714072 0.648944 0.664413 0.570049 0.597572
Pattern_2 0.603521 0.611879 0.672658 0.731858 0.828661 0.855138
Pattern_2 1.011219 1.047472 1.263739 1.189189 1.339345 1.446763
Pattern_2 1.422484 1.491040 1.363040 1.484580 1.369931 1.490562
Pattern_2 1.346265 1.469917 1.331324 1.302016 1.280775 1.256348
Pattern_2 1.290226 1.339650 1.245703 1.298892 1.311939 1.269881
Pattern_2 1.265426 1.425991 1.282190 1.468639 1.449989 1.329047
Pattern_2 1.272236 1.353841 1.204040 1.117976 1.039799 0.944860
Pattern_2 0.886736 0.798228 0.662559 0.583521 0.632994 0.559141
Pattern_2 0.560840 0.618378 0.666827 0.747371 0.779911 0.870685
Pattern_2 1.000012 1.101955 1.190524 1.359911 1.426116 1.493316
Pattern_2 1.504009 1.507398 1.423113 1.363917 1.451134 1.472923
Pattern_2 1.300795 1.331847 1.316807 1.252720 1.274865 1.294247
Pattern_2 1.255102 1.224694 1.336831 1.322664 1.219327 1.313877
Pattern_2 1.354759 1.286574 1.374223 1.427760 1.541576 1.257847
Pattern_2 1.401004 1.159863 1.308482 1.100196 1.047887 1.057473
Pattern_2 0.909682 0.793215 0.711610 0.701704 0.597221 0.560599
Pattern_2 0.636157 0.655270 0.646814 0.745321 0.943264 0.952385
Pattern_2 1.117780 1.263640 1.257829 1.432338 1.534054 1.622707
Pattern_2 1.764334 1.714846 1.748428 1.654669 1.548283 1.570894
Pattern_2 1.623245 1.505257 1.549514 1.441998 1.398613 1.258339
Pattern_2 1.373193 1.302704 1.272959 1.232936 1.472290 1.428497
Pattern_2 1.323695 1.391452 1.354771 1.317488 1.285852 1.319430
Pattern_2 1.283019 1.221948 1.242186 1.116992 1.124695 0.957698
Pattern_2 0.937414 0.872364 0.796238 0.717774 0.676285 0.566670
Pattern_2 0.652367 0.553379 0.612081 0.649557 0.664767 0.776802
Pattern_2 0.781846 0.964980 1.068861 1.057151 1.188708 1.309039
Pattern_2 1.302880 1.369203 1.371929 1.425029 1.380210 1.436031
Pattern_2 1.368385 1.504825 1.420475 1.383159 1.371694 1.231827
Pattern_2 1.186944 1.296803 1.303077 1.351744 1.248693 1.280467
Pattern_2 1.408111 1.377493 1.366175 1.236872 1.202562 1.137515
Pattern_2 1.219799 1.031364 0.983271 1.028724 0.970173 0.838861
Pattern_2 0.842263

Pattern_3 0.812186 0.746182 0.658802 0.711622 0.649509 0.549922
Pattern_3 0.553060 0.538170 0.602360 0.611453 0.606584 0.661136
Pattern_3 0.701647 0.816659 0.883456 0.891202 0.988414 1.024830
Pattern_3 1.120214 1.220731 1.290343 1.322896 1.375823 1.320181
Pattern_3 1.439138 1.355775 1.343588 1.160012 1.221975 1.223692
Pattern_3 1.152858 1.155370 1.135105 1.053533 1.175593 1.243218
Pattern_3 1.252284 1.333460 1.077108 1.333655 1.356148 1.204626
Pattern_3 1.149256 1.119678 1.124726 1.015809 0.927918 0.820860
Pattern_3 0.748415 0.700600 0.637120 0.581860 0.544674 0.517194
Pattern_3 0.493521 0.534449 0.578849 0.664623 0.757258 0.796364
Pattern_3 0.974610 0.996728 1.151558 1.306304 1.383647 1.467224
Pattern_3 1.636333 1.692658 1.692476 1.604104 1.620164 1.486001
Pattern_3 1.461801 1.411705 1.514692 1.184570 1.294230 1.198062
Pattern_3 1.143773 1.105745 1.141519 1.108963 1.058813 1.132145
Pattern_3 1.284898 1.187936 1.256423 1.287119 1.257516 1.375067
Pattern_3 1.317259 1.158043 1.243723 1.080799 0.971430 0.995858
Pattern_3 0.895394 0.727118 0.672416 0.587682 0.530652 0.537395
Pattern_3 0.508525 0.550745 0.640770 0.679744 0.688888 0.922697
Pattern_3 0.976355 1.048382 1.083357 1.261965 1.358857 1.473166
Pattern_3 1.440594 1.493497 1.575489 1.623463 1.678636 1.529194
Pattern_3 1.385845 1.337195 1.262032 1.255542 1.179995 1.296048
Pattern_3 1.215030 1.145914 1.208254 1.308239 1.241638 1.176708
Pattern_3 1.264226 1.446465 1.334254 1.438755 1.387212 1.478266
Pattern_3 1.248021 1.176703 1.230469 1.154836 0.887607 0.909257
Pattern_3 0.835116 0.633088 0.621984 0.541080 0.528548 0.583381
Pattern_3 0.561481 0.548187 0.683029 0.730261 0.820315 0.918132
Pattern_3 1.011201 1.024702 1.180970 1.428573 1.273159 1.417064
Pattern_3 1.439593 1.526818 1.380208 1.568424 1.412922 1.485864
Pattern_3 1.350574 1.348476 1.415957 1.328431 1.277430 1.203358
Pattern_3 1.354536 1.279737 1.218837 1.239272 1.258510 1.213179
Pattern_3 1.236685 1.166408 1.314665 1.447334 1.335406 1.354417
Pattern_3 1.147809 1.232785 1.172208 1.225528 1.052944 1.001057
Pattern_3 0.840627 0.726752 0.603587 0.577685 0.539406 0.512882
Pattern_3 0.499381 0.549008 0.600130 0.653517 0.735284 0.888062
Pattern_3 1.008196 1.053285 1.251832 1.390151 1.474732 1.367741
Pattern_3 1.559339 1.494552 1.458642 1.437139 1.421965 1.326409
Pattern_3 1.305159 1.284578 1.126341 1.274795 1.153603 1.167866
Pattern_3 1.182824 1.206785 1.181561 1.365129 1.252577 1.204950
Pattern_3 1.304431 1.318733 1.276303 1.434993 1.258507 1.486816
Pattern_3 1.201934 1.270195 1.264249 1.221607 1.006589 0.943086
Pattern_3 0.843736 0.834005 0.663520 0.599874 0.582481 0.488324
Pattern_3 0.574285 0.598687 0.665015 0.761781 0.903471 0.913906
Pattern_3 1.051027 1.289814 1.413237 1.560643 1.525366 1.627607
Pattern_3 1.711989 1.688252 1.774092 1.619975 1.574495 1.754925
Pattern_3 1.709945 1.434283 1.437574 1.478637 1.184264 1.300024
Pattern_3 1.370313 1.237143 1.307327 1.217073 1.331277 1.385273
Pattern_3 1.338425 1.360717 1.216524 1.334540 1.407474 1.309591
Pattern_3 1.299797 1.402214 1.136832 1.066039 1.050232 1.000938
Pattern_3 0.816086 0.760000 0.760953 0.676507 0.631413 0.600753
Pattern_3 0.577237 0.563142 0.600665 0.715900 0.685448 0.817776
Pattern_3 0.811463 0.952984 1.021703 1.046663 1.177724 1.331544
Pattern_3 1.327489 1.404852 1.420882 1.467470 1.532324 1.507002
Pattern_3 1.462854 1.372619 1.408540 1.318969 1.264557 1.203732
Pattern_3 1.313090 1.249547 1.337161 1.277431 1.287681 1.300988
Pattern_3 1.355290 1.344900 1.316513 1.273947 1.217648 1.149289
Pattern_3 1.094014 1.054515 0.987772 0.971050 0.963972 0.831748
Pattern_3 0.874430 0.711089 0.685974 0.720777 0.616976 0.605275
Pattern_3 0.586293 0.595931 0.554189 0.588649 0.615129 0.650436
Pattern_3 0.732154 0.784419 0.866419 0.926600 0.996820 1.073673
Pattern_3 1.165498 1.233992 1.183925 1.435710 1.284101 1.283345
Pattern_3 1.426143 1.364439 1.353071 1.289446 1.255242 1.149320
Pattern_3 1.028596 1.216629 1.214248 1.148735 1.202398 1.126079
Pattern_3 1.305902 1.295968 1.253744 1.228608 1.251009 1.235940
Pattern_3 1.254161 1.142081 1.064433 1.050629 0.890293 0.906308
Pattern_3 0.802985 0.729762 0.621012 0.588826 0.557187 0.512503
Pattern_3 0.460182 0.569470 0.626379 0.613179 0.726208 0.811782
Pattern_3 0.963267 1.043122 1.212481 1.381503 1.562209 1.515656
Pattern_3 1.584151 1.548076 1.551461 1.618216 1.611604 1.600239
Pattern_3 1.405795 1.509626 1.456348 1.360075 1.236732 1.072180
Pattern_3 1.108609 1.005938 1.033193 1.141061 1.078310 1.229384
Pattern_3 1.296291 1.228222 1.407325 1.365831 1.399222 1.282132
Pattern_3 1.237444 1.389322 1.103780 1.107733 1.045877 0.935901
Pattern_3 0.798263 0.738400 0.704049 0.582233 0.573289 0.514418
Pattern_3 0.569107 0.579257 0.648578 0.680478 0.775076 0.896495
Pattern_3 0.981192 1.029884 1.166140 1.360287 1.321844 1.445425
Pattern_3 1.501615 1.367215 1.606960 1.562049 1.539286 1.429137
Pattern_3 1.369256 1.337758 1.344411 1.195443 1.276963 1.211267
Pattern_3 1.198909 1.108158 1.216367 1.157255 1.240695 1.192871
Pattern_3 1.317259 1.281302 1.350603 1.389728 1.502795 1.387149
Pattern_3 1.291442 1.193285 1.230817 1.133385 1.065766 0.924324
Pattern_3 0.792938 0.741241 0.599907 0.610042 0.578019 0.505195
Pattern_3 0.572439 0.607682 0.692902 0.688534 0.816239 0.930743
Pattern_3 1.022026 1.138860 1.247151 1.441370 1.506101 1.477905
Pattern_3 1.498893 1.681503 1.676870 1.357147 1.488521 1.456534
Pattern_3 1.532898 1.335561 1.319781 1.348408 1.320225 1.249506
Pattern_3 1.217561 1.186809 1.183651 1.222222 1.191958 1.283457
Pattern_3 1.218856 1.246296 1.280394 1.260077 1.377370 1.507193
Pattern_3 1.378612 1.361205 1.140336 1.120716 1.076728 0.926717
Pattern_3 0.870937 0.677673 0.645723 0.612796 0.512890 0.511918
Pattern_3 0.533878 0.541199 0.620870 0.649037 0.854927 0.900089
Pattern_3 1.024667 1.149038 1.203259 1.317439 1.373589 1.467442
Pattern_3 1.550503 1.567978 1.520750 1.460366 1.411151 1.423807
Pattern_3 1.314390 1.337864 1.347085 1.251883 1.231066 1.151001
Pattern_3 1.231793 1.258719 1.274089 1.210311 1.253796 1.261176
Pattern_3 1.298928 1.286584 1.463568 1.425200 1.358225 1.353931
Pattern_3 1.266263 1.309462 1.281916 1.205473 1.103458 0.931891
Pattern_3 0.806904 0.720824 0.687056 0.606365 0.620921 0.572860
Pattern_3 0.543242 0.638574 0.703288 0.790016 0.905860 1.078805
Pattern_3 1.113514 1.230271 1.358286 1.535490 1.531983 1.699717
Pattern_3 1.734559 1.703130 1.742969 1.725194 1.708225 1.508299
Pattern_3 1.435212 1.470294 1.321670 1.378953 1.304195 1.222868
Pattern_3 1.302029 1.406049 1.343974 1.273167 1.240508 1.263821
Pattern_3 1.357836 1.359079 1.380442 1.430128 1.266938 1.288782
Pattern_3 1.260984 1.240487 1.166210 1.155341 1.013837 0.993675
Pattern_3 0.925915 0.875203 0.705683 0.655763 0.587716 0.612970
Pattern_3 0.524499 0.609609 0.576440 0.613865 0.691075 0.820584
Pattern_3 0.895364 0.984411 0.983026 1.197121 1.295074 1.294619
Pattern_3 1.354459 1.563199 1.591129 1.422915 1.527179 1.462125
Pattern_3 1.320651 1.454194 1.276992 1.380708 1.361594 1.300814
Pattern_3 1.168489 1.392074 1.316437 1.378913 1.335177 1.273112
Pattern_3 1.404734 1.425948 1.322216 1.317130 1.267031 1.060866
Pattern_3 1.219392 1.091372 0.939381 0.940456 0.958446 1.015914
Pattern_3 0.769417

Pattern_4 0.750151 0.792148 0.617026 0.683234 0.608017 0.534109
Pattern_4 0.524579 0.500184 0.531867 0.536733 0.545328 0.613723
Pattern_4 0.561351 0.763870 0.676861 0.863717 0.869534 0.995024
Pattern_4 1.059763 1.293172 1.245777 1.196913 1.344954 1.308492
Pattern_4 1.266771 1.332398 1.258990 1.238149 1.251280 1.231937
Pattern_4 1.217190 1.147338 1.173566 1.223868 1.029849 1.360761
Pattern_4 1.231992 1.247096 1.235547 1.251748 1.337139 1.300506
Pattern_4 1.215369 1.214826 1.095638 1.014301 0.967625 0.765543
Pattern_4 0.796060 0.686515 0.623582 0.491166 0.484323 0.461417
Pattern_4 0.475846 0.500419 0.509201 0.575020 0.687083 0.817722
Pattern_4 0.881910 1.047876 1.138556 1.326017 1.429984 1.441784
Pattern_4 1.494107 1.552830 1.721369 1.591141 1.654055 1.548800
Pattern_4 1.530801 1.508772 1.376394 1.282185 1.233828 1.095169
Pattern_4 1.068623 1.100677 1.122977 1.090717 1.103282 1.253450
Pattern_4 1.276088 1.303365 1.354891 1.291842 1.142916 1.311692
Pattern_4 1.363695 1.310905 1.196484 1.078421 1.043571 0.878448
Pattern_4 0.765425 0.719968 0.568116 0.543522 0.500305 0.457764
Pattern_4 0.461564 0.474756 0.565450 0.592155 0.724235 0.813685
Pattern_4 0.914361 1.068237 1.149757 1.277296 1.324669 1.475183
Pattern_4 1.558545 1.624079 1.461130 1.380424 1.417309 1.457513
Pattern_4 1.423834 1.367791 1.354264 1.263294 1.211384 1.176298
Pattern_4 1.147591 1.150599 1.162434 1.153570 1.210454 1.262492
Pattern_4 1.332260 1.499264 1.505840 1.412578 1.331097 1.299943
Pattern_4 1.242236 1.212062 1.227869 1.181484 1.100096 0.965858
Pattern_4 0.729832 0.663716 0.569154 0.549696 0.481925 0.487234
Pattern_4 0.496379 0.555179 0.592110 0.644487 0.740182 0.909997
Pattern_4 0.950531 1.159670 1.161555 1.252908 1.323323 1.360644
Pattern_4 1.371520 1.483699 1.571702 1.514116 1.448957 1.523536
Pattern_4 1.618722 1.468408 1.481557 1.384426 1.369899 1.382551
Pattern_4 1.193095 1.280641 1.247482 1.255879 1.154948 1.278830
Pattern_4 1.322324 1.354977 1.294509 1.299578 1.371757 1.411562
Pattern_4 1.341541 1.368525 1.175363 1.201667 1.090548 0.875432
Pattern_4 0.866925 0.729927 0.650184 0.517776 0.469222 0.488068
Pattern_4 0.425505 0.522313 0.585652 0.655110 0.714396 0.877633
Pattern_4 0.970676 1.211491 1.206610 1.208879 1.367119 1.473864
Pattern_4 1.547318 1.367078 1.444537 1.336065 1.440370 1.493467
Pattern_4 1.348511 1.368122 1.300656 1.328986 1.159848 1.154510
Pattern_4 1.235425 1.238947 1.283856 1.233533 1.156826 1.250338
Pattern_4 1.267716 1.337924 1.536198 1.266564 1.347579 1.375758
Pattern_4 1.351291 1.171073 1.193780 1.081781 1.064201 0.929875
Pattern_4 0.858780 0.757337 0.711764 0.541935 0.498979 0.490568
Pattern_4 0.531185 0.500299 0.537203 0.689608 0.814590 0.939265
Pattern_4 1.098262 1.171860 1.335003 1.471668 1.624832 1.809683
Pattern_4 1.867833 1.605357 1.726572 1.744633 1.771603 1.537176
Pattern_4 1.346939 1.517380 1.431853 1.414080 1.367071 1.379666
Pattern_4 1.166750 1.159383 1.341712 1.344574 1.323964 1.368977
Pattern_4 1.238733 1.468149 1.389359 1.390819 1.387073 1.319712
Pattern_4 1.255957 1.287378 1.150916 1.090788 1.063382 0.892266
Pattern_4 0.958467 0.801363 0.707231 0.670256 0.628852 0.568712
Pattern_4 0.591665 0.553182 0.567304 0.620951 0.653415 0.724026
Pattern_4 0.745027 0.932178 0.993674 1.080926 1.207380 1.323846
Pattern_4 1.368925 1.431603 1.575375 1.498095 1.467186 1.451603
Pattern_4 1.368167 1.325377 1.323088 1.291185 1.462794 1.383516
Pattern_4 1.367589 1.257911 1.417187 1.338557 1.266294 1.258041
Pattern_4 1.323107 1.272981 1.317664 1.259646 1.272116 1.119777
Pattern_4 1.226523 1.078140 1.023183 0.993957 0.887161 0.839029
Pattern_4 0.745581 0.780186 0.697367 0.574779 0.612970 0.582777
Pattern_4 0.536770 0.479033 0.492757 0.509116 0.535843 0.597771
Pattern_4 0.665397 0.744171 0.743830 0.905933 0.947161 1.046683
Pattern_4 1.169411 1.270958 1.160825 1.208153 1.332271 1.334129
Pattern_4 1.352379 1.281614 1.324085 1.243451 1.215199 1.258955
Pattern_4 1.250747 1.174197 1.272854 1.238130 1.219066 1.173208
Pattern_4 1.201310 1.347933 1.242340 1.356608 1.367841 1.302182
Pattern_4 1.150986 1.127668 1.153218 1.102955 0.974431 0.899698
Pattern_4 0.794036 0.619549 0.617519 0.523166 0.457121 0.505273
Pattern_4 0.502413 0.502134 0.563525 0.596560 0.708019 0.807753
Pattern_4 0.930147 0.976372 1.267784 1.411872 1.623131 1.643266
Pattern_4 1.589130 1.629429 1.665477 1.714889 1.528940 1.543322
Pattern_4 1.522618 1.546261 1.463043 1.236596 1.188459 1.263854
Pattern_4 1.133924 1.077618 1.028552 1.108682 1.124221 1.179283
Pattern_4 1.241787 1.345864 1.491702 1.337363 1.483306 1.426562
Pattern_4 1.415565 1.346138 1.136477 1.010116 1.011172 0.944952
Pattern_4 0.790023 0.698180 0.625704 0.614522 0.530121 0.482082
Pattern_4 0.493049 0.524294 0.525511 0.679292 0.754543 0.763368
Pattern_4 0.943768 1.143164 1.132579 1.223376 1.342154 1.388049
Pattern_4 1.576372 1.568296 1.595585 1.594698 1.493489 1.418951
Pattern_4 1.434375 1.471238 1.326440 1.200148 1.276454 1.274733
Pattern_4 1.186518 1.210506 1.232372 1.113139 1.178983 1.363544
Pattern_4 1.335861 1.508606 1.286627 1.426879 1.350417 1.506009
Pattern_4 1.360838 1.290582 1.296823 1.124052 1.008941 0.958568
Pattern_4 0.859608 0.704548 0.632607 0.580110 0.475918 0.472274
Pattern_4 0.491729 0.504566 0.602868 0.703991 0.793254 0.952020
Pattern_4 0.993454 1.119551 1.265139 1.300516 1.417710 1.520196
Pattern_4 1.521266 1.657542 1.558384 1.660075 1.716008 1.618016
Pattern_4 1.464198 1.468442 1.430871 1.343342 1.284629 1.294562
Pattern_4 1.254252 1.244122 1.344014 1.220294 1.263811 1.235677
Pattern_4 1.291598 1.336957 1.379765 1.342595 1.352690 1.430166
Pattern_4 1.365126 1.308311 1.139470 1.150974 0.983549 0.989970
Pattern_4 0.832368 0.736551 0.636822 0.532943 0.508614 0.427793
Pattern_4 0.478542 0.501057 0.551032 0.603087 0.762202 0.869377
Pattern_4 0.967683 1.183510 1.260258 1.360451 1.421138 1.458205
Pattern_4 1.476358 1.649652 1.648104 1.410425 1.456909 1.488373
Pattern_4 1.540953 1.390873 1.265738 1.264297 1.255746 1.277321
Pattern_4 1.199413 1.191994 1.238786 1.346001 1.307984 1.286001
Pattern_4 1.286316 1.360886 1.402463 1.472003 1.227576 1.510343
Pattern_4 1.294988 1.353267 1.262760 1.188702 1.121573 0.912096
Pattern_4 0.831452 0.754983 0.624189 0.582112 0.499827 0.500236
Pattern_4 0.496458 0.555094 0.619932 0.706063 0.867159 0.933312
Pattern_4 1.116551 1.212621 1.357921 1.497254 1.658581 1.566352
Pattern_4 1.747939 1.817158 1.734332 1.646640 1.558367 1.673798
Pattern_4 1.629594 1.466163 1.440506 1.449996 1.409304 1.364380
Pattern_4 1.323168 1.288455 1.228868 1.293927 1.314696 1.413504
Pattern_4 1.397499 1.363704 1.388737 1.343525 1.265708 1.300338
Pattern_4 1.267554 1.206150 1.222133 1.053495 1.044020 0.870603
Pattern_4 0.932466 0.790825 0.707180 0.634521 0.590310 0.573394