; Filename: ../Network_Originals/Hanoi_CMH.inp
; WNTR: 0.4.0
; Created: 2022-11-16 12:31:31
[TITLE]

[JUNCTIONS]
;ID                      Elevation       Demand Pattern                 
 2                                 30          247.22 Pattern_2                  ;
 3                                 30          236.11 Pattern_3                  ;
 4                                 30           36.11 Pattern_4                  ;
 5                                 30          201.39 Pattern_5                  ;
 6                                 30          279.17 Pattern_6                  ;
 7                                 30             375 Pattern_7                  ;
 8                                 30          152.78 Pattern_8                  ;
 9                                 30          145.83 Pattern_9                  ;
 10                                30          145.83 Pattern_10                 ;
 11                                30          138.89 Pattern_11                 ;
 12                                30          155.56 Pattern_12                 ;
 13                                30          261.11 Pattern_13                 ;
 14                                30          170.83 Pattern_14                 ;
 15                                30           77.78 Pattern_15                 ;
 16                                30           86.11 Pattern_16                 ;
 17                                30          240.28 Pattern_17                 ;
 18                                30          373.61 Pattern_18                 ;
 19                                30           16.67 Pattern_19                 ;
 20                                30          354.17 Pattern_20                 ;
 21                                30          258.33 Pattern_21                 ;
 22                                30          134.72 Pattern_22                 ;
 23                                30          290.28 Pattern_23                 ;
 24                                30          227.78 Pattern_24                 ;
 25                                30           47.22 Pattern_25                 ;
 26                                30             250 Pattern_26                 ;
 27                                30          102.78 Pattern_27                 ;
 28                                30           80.56 Pattern_28                 ;
 29                                30             100 Pattern_29                 ;
 30                                30             100 Pattern_30                 ;
 31                                30           29.17 Pattern_31                 ;
 32                                30          223.61 Pattern_32                 ;

[RESERVOIRS]
;ID                                   Head                  Pattern
 1                                100                            ;

[TANKS]
;ID                              Elevation           Init Level            Min Level            Max Level             Diameter           Min Volume Volume Curve         Overflow            

[PIPES]
;ID                   Node1                Node2                              Length             Diameter            Roughness           Minor Loss               Status
 1                    1                    2                                100            1016             130               0                 Open   ;
 2                    2                    3                               1350            1016             130               0                 Open   ;
 3                    3                    4                                900            1016             130               0                 Open   ;
 4                    4                    5                               1150            1016             130               0                 Open   ;
 5                    5                    6                               1450            1016             130               0                 Open   ;
 6                    6                    7                                450            1016             130               0                 Open   ;
 7                    7                    8                                850            1016             130               0                 Open   ;
 8                    8                    9                                850            1016             130               0                 Open   ;
 9                    9                    10                               800            1016             130               0                 Open   ;
 10                   10                   11                               950             762             130               0                 Open   ;
 11                   11                   12                              1200             762             130               0                 Open   ;
 12                   12                   13                              3500           609.6             130               0                 Open   ;
 13                   10                   14                               800           406.4             130               0                 Open   ;
 14                   14                   15                               500           406.4             130               0                 Open   ;
 15                   15                   16                               550           304.8             130               0                 Open   ;
 16                   17                   16                              2730           406.4             130               0                 Open   ;
 17                   17                   18                              1750             508             130               0                 Open   ;
 18                   18                   19                               800           609.6             130               0                 Open   ;
 19                   19                   3                                400           609.6             130               0                 Open   ;
 20                   3                    20                              2200            1016             130               0                 Open   ;
 21                   20                   21                              1500             508             130               0                 Open   ;
 22                   21                   22                               500           304.8             130               0                 Open   ;
 23                   20                   23                              2650            1016             130               0                 Open   ;
 24                   23                   24                              1230             762             130               0                 Open   ;
 25                   24                   25                              1300             762             130               0                 Open   ;
 26                   26                   25                               850             508             130               0                 Open   ;
 27                   27                   26                               300           304.8             130               0                 Open   ;
 28                   16                   27                               750           304.8             130               0                 Open   ;
 29                   23                   28                              1500           406.4             130               0                 Open   ;
 30                   28                   29                              2000           406.4             130               0                 Open   ;
 31                   29                   30                              1600           304.8             130               0                 Open   ;
 32                   30                   31                               150           304.8             130               0                 Open   ;
 33                   32                   31                               860           406.4             130               0                 Open   ;
 34                   25                   32                               950             508             130               0                 Open   ;

[PUMPS]
;ID                   Node1                Node2                Properties          

[VALVES]
;ID                   Node1                Node2                            Diameter Type              Setting           Minor Loss

[TAGS]
;type      name       tag       

[DEMANDS]
;ID        Demand     Pattern   

[STATUS]
;ID        Setting   

[PATTERNS]
;ID        Multipliers

Pattern_2 0.766084 0.750698 0.684249 0.662291 0.586001 0.576696
Pattern_2 0.646701 0.567289 0.579368 0.664331 0.660203 0.720265
Pattern_2 0.723504 0.738688 0.908205 0.959829 1.055586 0.920349
Pattern_2 1.121897 1.115578 1.177020 1.300679 1.329708 1.242328
Pattern_2 1.263845 1.270880 1.253473 1.130238 1.156154 1.194194
Pattern_2 1.172679 1.150898 1.057315 1.089494 1.152438 1.091001
Pattern_2 1.234486 1.116636 1.165657 1.085605 1.185959 1.177834
Pattern_2 1.158767 1.032012 1.057463 0.991509 0.942659 0.898875
Pattern_2 0.817977 0.706675 0.643940 0.600420 0.536951 0.549242
Pattern_2 0.524484 0.599955 0.662153 0.665176 0.779884 0.801365
Pattern_2 1.004564 1.120823 1.144240 1.161578 1.455110 1.459366
Pattern_2 1.637453 1.432138 1.570686 1.658761 1.663337 1.704108
Pattern_2 1.440294 1.349251 1.281421 1.252207 1.023545 1.137851
Pattern_2 1.055916 1.101292 1.077099 1.143720 1.067696 1.154653
Pattern_2 1.184107 1.105640 1.261460 1.292202 1.307084 1.349247
Pattern_2 1.244993 1.135608 1.284820 1.032762 1.002920 0.940375
Pattern_2 0.818495 0.767041 0.673857 0.600160 0.542946 0.530232
Pattern_2 0.535879 0.581116 0.657361 0.652918 0.814721 0.863690
Pattern_2 0.923400 0.984343 1.104506 1.238087 1.294480 1.284200
Pattern_2 1.539210 1.510969 1.597280 1.400589 1.456605 1.422566
Pattern_2 1.339823 1.450841 1.230880 1.249259 1.252523 1.236204
Pattern_2 1.214387 1.120678 1.174710 1.322395 1.209289 1.126002
Pattern_2 1.183244 1.361133 1.358935 1.163562 1.281773 1.227540
Pattern_2 1.286466 1.245338 1.274195 1.121379 1.098239 0.920233
Pattern_2 0.753771 0.784782 0.629774 0.586376 0.603256 0.490204
Pattern_2 0.613816 0.627490 0.611914 0.756504 0.745949 0.884144
Pattern_2 0.980152 1.131982 1.178277 1.241399 1.388263 1.436157
Pattern_2 1.503679 1.462325 1.520138 1.466177 1.574832 1.578262
Pattern_2 1.411610 1.364591 1.351195 1.307821 1.234434 1.284827
Pattern_2 1.231543 1.157706 1.274177 1.213442 1.264974 1.094446
Pattern_2 1.338276 1.308829 1.282319 1.283258 1.324048 1.279487
Pattern_2 1.308833 1.256410 1.098442 1.209401 1.048424 0.959172
Pattern_2 0.851764 0.763435 0.684845 0.617976 0.577157 0.554348
Pattern_2 0.571764 0.558936 0.647493 0.705955 0.776244 0.859217
Pattern_2 0.967424 1.118230 1.201858 1.399126 1.356703 1.566429
Pattern_2 1.513925 1.508000 1.458085 1.510915 1.439482 1.448000
Pattern_2 1.425976 1.419449 1.313888 1.266138 1.235699 1.230222
Pattern_2 1.100630 1.283373 1.269780 1.205260 1.108642 1.226967
Pattern_2 1.131765 1.203219 1.349539 1.361042 1.343084 1.218725
Pattern_2 1.232260 1.224409 1.124632 1.110036 1.062617 0.951537
Pattern_2 0.784927 0.741084 0.688227 0.625236 0.587405 0.606106
Pattern_2 0.566552 0.576366 0.638491 0.741428 0.934129 1.061962
Pattern_2 1.052350 1.326944 1.333236 1.338487 1.548112 1.713491
Pattern_2 1.785838 1.672562 1.804150 1.386427 1.615097 1.747168
Pattern_2 1.491300 1.400301 1.449792 1.466434 1.259766 1.286688
Pattern_2 1.268771 1.234281 1.141305 1.231172 1.213877 1.198259
Pattern_2 1.363314 1.249109 1.228891 1.288669 1.167793 1.195531
Pattern_2 1.276871 1.172743 1.139269 1.055631 1.078362 0.964376
Pattern_2 0.891588 0.800541 0.804031 0.735286 0.705211 0.699333
Pattern_2 0.575625 0.666551 0.643969 0.666001 0.739904 0.769263
Pattern_2 0.894349 0.918966 0.976297 1.180431 1.252611 1.411474
Pattern_2 1.368666 1.395122 1.378557 1.417443 1.450308 1.475122
Pattern_2 1.399022 1.452959 1.350921 1.355470 1.307581 1.343449
Pattern_2 1.214778 1.240623 1.362168 1.386159 1.183238 1.330607
Pattern_2 1.334380 1.222508 1.292424 1.088501 1.217534 1.107947
Pattern_2 1.203388 1.066825 1.004788 0.966831 0.929448 0.804767
Pattern_2 0.784410 0.744496 0.765786 0.679498 0.679074 0.605666
Pattern_2 0.619756 0.600046 0.560091 0.550108 0.669188 0.638051
Pattern_2 0.747839 0.814257 0.841327 0.947713 0.978172 1.072164
Pattern_2 1.153401 1.294532 1.353177 1.274645 1.238592 1.384255
Pattern_2 1.368432 1.349965 1.308965 1.246118 1.250221 1.199982
Pattern_2 1.099501 1.169560 1.108035 1.094645 1.112440 1.146878
Pattern_2 1.057840 1.141059 1.307188 1.205023 1.192708 1.191625
Pattern_2 1.098905 1.258523 1.010218 0.986087 0.959540 0.866396
Pattern_2 0.797856 0.770676 0.644337 0.672453 0.560072 0.569534
Pattern_2 0.532779 0.592299 0.596687 0.783685 0.748240 0.824031
Pattern_2 0.898405 1.063865 1.265665 1.405260 1.388811 1.460394
Pattern_2 1.526613 1.691393 1.635706 1.466986 1.537763 1.390386
Pattern_2 1.589985 1.369808 1.390116 1.159297 1.247206 1.220994
Pattern_2 1.168952 1.108284 1.087939 1.124997 1.093477 1.092890
Pattern_2 1.097531 1.135991 1.293964 1.292742 1.276452 1.235833
Pattern_2 1.281214 1.079449 1.199988 1.134459 0.987976 0.816618
Pattern_2 0.814943 0.717458 0.693952 0.621233 0.576251 0.523878
Pattern_2 0.611133 0.582223 0.708563 0.730287 0.807456 0.953414
Pattern_2 0.922965 1.071654 1.259429 1.238319 1.284670 1.443787
Pattern_2 1.552402 1.536989 1.568000 1.593525 1.512395 1.457982
Pattern_2 1.541516 1.501987 1.350386 1.248112 1.398267 1.235954
Pattern_2 1.214590 1.242815 1.230290 1.287398 1.230865 1.190464
Pattern_2 1.392240 1.206100 1.339213 1.448346 1.382316 1.399498
Pattern_2 1.400180 1.171474 1.121432 1.263558 1.037000 0.898809
Pattern_2 0.880414 0.799790 0.625875 0.603777 0.569748 0.563402
Pattern_2 0.623719 0.641145 0.655965 0.736720 0.876219 0.902371
Pattern_2 1.101986 1.194984 1.144080 1.333544 1.413611 1.488694
Pattern_2 1.519964 1.599222 1.517484 1.553619 1.436456 1.364605
Pattern_2 1.630385 1.449707 1.335533 1.483233 1.382211 1.180549
Pattern_2 1.263486 1.219075 1.145803 1.203285 1.276398 1.276688
Pattern_2 1.255371 1.344858 1.207031 1.410913 1.453652 1.324951
Pattern_2 1.213405 1.414073 1.205852 1.166586 1.074159 0.983838
Pattern_2 0.880732 0.790458 0.693304 0.618843 0.576000 0.592376
Pattern_2 0.572824 0.587132 0.702003 0.716348 0.763640 0.919366
Pattern_2 1.027713 1.283623 1.255129 1.297371 1.410611 1.467373
Pattern_2 1.554478 1.521535 1.671196 1.472083 1.574794 1.507636
Pattern_2 1.536430 1.228653 1.470690 1.337224 1.282095 1.342294
Pattern_2 1.247585 1.191474 1.205408 1.180229 1.147492 1.184395
Pattern_2 1.417849 1.388623 1.301557 1.357792 1.311912 1.283522
Pattern_2 1.345254 1.281123 1.106743 1.078337 1.010259 0.939828
Pattern_2 0.755283 0.778989 0.685615 0.649711 0.648367 0.519606
Pattern_2 0.601557 0.632435 0.655090 0.829519 0.905614 1.015688
Pattern_2 1.219350 1.258399 1.460358 1.546521 1.511987 1.670450
Pattern_2 1.691700 1.748342 1.597363 1.725255 1.636215 1.586272
Pattern_2 1.554757 1.552965 1.437466 1.271658 1.301367 1.204081
Pattern_2 1.274049 1.250448 1.349513 1.233628 1.252853 1.262509
Pattern_2 1.280721 1.368792 1.291896 1.234428 1.172548 1.468211
Pattern_2 1.207666 1.157047 1.131971 1.072133 1.072116 0.927640
Pattern_2 0.916349 0.824886 0.767120 0.746852 0.673164 0.646521
Pattern_2 0.731844 0.685066 0.643013 0.627871 0.731064 0.807827
Pattern_2 0.951217 0.998332 1.072117 1.075380 1.238363 1.346783
Pattern_2 1.454213 1.462764 1.398510 1.452585 1.397194 1.418557
Pattern_2 1.370817 1.482300 1.402927 1.283217 1.297670 1.230321
Pattern_2 1.337574 1.332970 1.132138 1.231599 1.351032 1.284720
Pattern_2 1.242562 1.243679 1.224680 1.270454 1.222008 1.160964
Pattern_2 1.090958 1.128664 0.978704 1.006500 1.027797 0.828900
Pattern_2 0.807448

Pattern_3 0.839442 0.757485 0.729553 0.656927 0.633280 0.579147
Pattern_3 0.624439 0.569169 0.532720 0.595696 0.669371 0.668033
Pattern_3 0.662626 0.767489 0.834294 0.845581 1.026576 0.953449
Pattern_3 1.121696 1.096082 1.190405 1.300366 1.180261 1.343804
Pattern_3 1.249127 1.216761 1.243442 1.168752 1.159213 1.216411
Pattern_3 1.168835 1.112320 1.225473 1.093207 1.178080 1.149630
Pattern_3 1.177980 1.142678 1.144475 1.341445 1.297362 1.250075
Pattern_3 1.149686 1.062261 1.010037 1.015487 0.950761 0.823909
Pattern_3 0.772041 0.732767 0.659839 0.620663 0.569186 0.556403
Pattern_3 0.491949 0.563887 0.609015 0.663696 0.740411 0.773344
Pattern_3 0.937983 1.035725 1.131511 1.335354 1.247790 1.414889
Pattern_3 1.562109 1.517197 1.566528 1.600039 1.446811 1.469940
Pattern_3 1.482851 1.418385 1.204391 1.239133 1.152993 1.096123
Pattern_3 1.125185 0.972360 1.124148 1.040327 1.115657 1.170658
Pattern_3 1.279610 1.393682 1.286793 1.444444 1.346574 1.204736
Pattern_3 1.276473 1.159221 1.233239 1.050410 1.064663 0.913392
Pattern_3 0.843051 0.804453 0.730777 0.646704 0.544692 0.559609
Pattern_3 0.543360 0.578338 0.624200 0.639545 0.805328 0.827480
Pattern_3 0.960127 0.988237 1.156227 1.272581 1.338096 1.438737
Pattern_3 1.331827 1.292628 1.528508 1.441301 1.369570 1.437409
Pattern_3 1.412925 1.314596 1.326094 1.268736 1.205516 1.103755
Pattern_3 1.072480 1.118043 1.187851 1.221185 1.277069 1.305059
Pattern_3 1.275250 1.194651 1.278472 1.453654 1.411645 1.471164
Pattern_3 1.311065 1.291560 1.207181 1.074182 0.963765 0.809987
Pattern_3 0.843219 0.683909 0.605818 0.589382 0.565521 0.544588
Pattern_3 0.545506 0.642573 0.628855 0.718385 0.805874 0.895143
Pattern_3 1.057547 0.981457 1.239957 1.223200 1.395398 1.330526
Pattern_3 1.456476 1.455188 1.458986 1.512611 1.522028 1.374825
Pattern_3 1.481000 1.396870 1.239764 1.422699 1.249045 1.190979
Pattern_3 1.151369 1.301911 1.248636 1.117975 1.372413 1.282649
Pattern_3 1.304452 1.352007 1.284261 1.355316 1.413937 1.357835
Pattern_3 1.294275 1.138659 1.174594 1.045470 1.111761 0.980055
Pattern_3 0.837026 0.808348 0.748496 0.684519 0.592128 0.612006
Pattern_3 0.600945 0.629934 0.666787 0.650736 0.794617 0.996402
Pattern_3 1.011011 1.104714 1.324205 1.384791 1.354758 1.435096
Pattern_3 1.533334 1.387737 1.451496 1.462812 1.565196 1.462378
Pattern_3 1.432822 1.356535 1.196061 1.315194 1.077812 1.157216
Pattern_3 1.274329 1.216235 1.322873 1.172584 1.212994 1.240366
Pattern_3 1.273076 1.221429 1.376820 1.331951 1.460733 1.323802
Pattern_3 1.366668 1.274794 1.262224 1.221972 1.038559 0.928913
Pattern_3 0.859060 0.820849 0.678374 0.667565 0.566648 0.592053
Pattern_3 0.592901 0.630472 0.713997 0.820901 0.874256 0.915452
Pattern_3 1.106795 1.281550 1.314597 1.528508 1.483033 1.649899
Pattern_3 1.651597 1.653487 1.639839 1.674046 1.598284 1.525773
Pattern_3 1.430593 1.473699 1.478999 1.300162 1.384452 1.269157
Pattern_3 1.305443 1.170507 1.211313 1.262020 1.329422 1.352973
Pattern_3 1.386896 1.235835 1.318448 1.316947 1.278570 1.397100
Pattern_3 1.094925 1.279299 1.056426 1.080257 1.091103 0.961967
Pattern_3 0.831467 0.804425 0.736541 0.675294 0.711722 0.666854
Pattern_3 0.547423 0.546058 0.580101 0.671348 0.680795 0.834252
Pattern_3 0.874093 0.932997 0.990371 1.194274 1.183190 1.413755
Pattern_3 1.405287 1.346947 1.496321 1.384260 1.399508 1.458218
Pattern_3 1.315705 1.337842 1.214634 1.304502 1.217559 1.183984
Pattern_3 1.318624 1.282435 1.368924 1.170029 1.307240 1.362593
Pattern_3 1.258555 1.207204 1.242402 1.215658 1.124660 1.259576
Pattern_3 1.176484 1.166987 0.990838 0.934789 0.939253 0.942129
Pattern_3 0.828725 0.785549 0.747427 0.691691 0.637622 0.575087
Pattern_3 0.630683 0.638184 0.541035 0.635495 0.603871 0.647672
Pattern_3 0.710542 0.833667 0.939101 0.909481 0.985652 1.071874
Pattern_3 1.131107 1.175006 1.147486 1.249137 1.300238 1.197032
Pattern_3 1.263845 1.295709 1.185946 1.200309 1.221094 1.143306
Pattern_3 1.152546 1.134205 1.074438 1.123994 1.151512 1.251653
Pattern_3 1.234702 1.155932 1.228206 1.269659 1.196990 1.300627
Pattern_3 1.227911 1.110166 1.038367 1.202368 1.005855 0.912908
Pattern_3 0.746200 0.735590 0.599666 0.620814 0.562727 0.604276
Pattern_3 0.505554 0.568670 0.671855 0.667933 0.751830 0.865769
Pattern_3 1.028782 1.098713 1.157300 1.282416 1.379924 1.474603
Pattern_3 1.530981 1.606047 1.698876 1.663759 1.451552 1.544981
Pattern_3 1.506108 1.450259 1.343720 1.199732 1.124846 1.142123
Pattern_3 1.100642 1.084509 1.201225 1.133130 1.063438 1.224932
Pattern_3 1.153937 1.277568 1.385683 1.327220 1.429127 1.328518
Pattern_3 1.256150 1.324138 1.196199 1.115376 1.085394 1.048463
Pattern_3 0.900465 0.748192 0.662220 0.644892 0.575835 0.550350
Pattern_3 0.564509 0.595061 0.606330 0.767919 0.695505 0.809396
Pattern_3 0.928150 1.069455 1.184966 1.281917 1.325723 1.371606
Pattern_3 1.543332 1.433695 1.471543 1.489442 1.420676 1.441984
Pattern_3 1.438753 1.402814 1.255357 1.172401 1.141412 1.268166
Pattern_3 1.240120 1.032766 1.181931 1.118425 1.278646 1.157391
Pattern_3 1.273880 1.384504 1.367866 1.457464 1.491922 1.347834
Pattern_3 1.315899 1.358186 1.182062 1.128771 1.004325 0.871211
Pattern_3 0.818906 0.801766 0.728526 0.571570 0.571718 0.531533
Pattern_3 0.604066 0.614073 0.580789 0.678277 0.762580 0.952542
Pattern_3 1.007276 1.120613 1.227910 1.265076 1.253549 1.522201
Pattern_3 1.404721 1.455577 1.517572 1.500307 1.577154 1.382810
Pattern_3 1.585634 1.467214 1.381041 1.272167 1.269724 1.174610
Pattern_3 1.309564 1.185817 1.219726 1.254613 1.244938 1.380683
Pattern_3 1.313004 1.343502 1.392990 1.337751 1.327780 1.317909
Pattern_3 1.350544 1.329345 1.232250 1.145145 1.037538 0.999363
Pattern_3 0.791003 0.753506 0.711462 0.565927 0.594691 0.557058
Pattern_3 0.577968 0.608266 0.615796 0.762937 0.850062 0.869832
Pattern_3 1.013629 1.116017 1.171039 1.312910 1.455587 1.579258
Pattern_3 1.569519 1.435720 1.390857 1.434003 1.503628 1.522422
Pattern_3 1.432564 1.399490 1.199400 1.220508 1.279733 1.273539
Pattern_3 1.223489 1.190639 1.243831 1.244730 1.173063 1.302336
Pattern_3 1.158218 1.416718 1.349562 1.412492 1.497745 1.427378
Pattern_3 1.294160 1.371913 1.174457 1.247507 1.057834 0.995916
Pattern_3 0.947432 0.841487 0.701074 0.627119 0.616721 0.563187
Pattern_3 0.573560 0.631499 0.718312 0.757189 0.840297 0.976704
Pattern_3 1.118226 1.225076 1.354466 1.520671 1.623688 1.657429
Pattern_3 1.863859 1.626614 1.822209 1.656761 1.580551 1.707602
Pattern_3 1.597288 1.485781 1.363597 1.349098 1.223131 1.270653
Pattern_3 1.274667 1.301847 1.291870 1.383311 1.330617 1.335713
Pattern_3 1.346335 1.422555 1.437796 1.266151 1.278087 1.418366
Pattern_3 1.377627 1.212001 1.156143 1.131933 1.071548 1.031805
Pattern_3 0.975722 0.780231 0.718026 0.713843 0.684997 0.632673
Pattern_3 0.632800 0.597560 0.667474 0.677699 0.727400 0.750877
Pattern_3 0.824030 1.024169 1.043051 1.091724 1.145517 1.321939
Pattern_3 1.290185 1.377935 1.456275 1.337728 1.575181 1.356317
Pattern_3 1.419407 1.452000 1.438760 1.397533 1.332711 1.254468
Pattern_3 1.316850 1.233500 1.281185 1.234024 1.259812 1.243497
Pattern_3 1.283009 1.368608 1.326162 1.296000 1.188083 1.184225
Pattern_3 1.051508 1.122668 0.943139 1.111399 0.811363 0.926797
Pattern_3 0.800154

Pattern_4 0.833882 0.761616 0.768613 0.662721 0.691128 0.667658
Pattern_4 0.649494 0.601129 0.605000 0.577123 0.585319 0.688598
Pattern_4 0.816881 0.737700 0.888140 0.995308 1.008382 1.093940
Pattern_4 1.137822 1.141867 1.190340 1.348964 1.254135 1.348449
Pattern_4 1.248939 1.244410 1.199939 1.155625 1.207711 1.215723
Pattern_4 1.139731 1.154016 1.235020 1.075834 1.213694 1.256824
Pattern_4 1.239721 1.196000 1.131835 1.240813 1.206553 1.360809
Pattern_4 1.197711 1.102099 1.009473 0.982000 0.966429 0.876131
Pattern_4 0.828211 0.746720 0.665133 0.569360 0.576043 0.528079
Pattern_4 0.553092 0.580529 0.667587 0.722036 0.796060 0.880463
Pattern_4 1.016489 1.075840 1.171458 1.288956 1.445672 1.434435
Pattern_4 1.556302 1.541851 1.626976 1.554749 1.563015 1.477746
Pattern_4 1.486437 1.431074 1.356360 1.214981 1.203097 1.248152
Pattern_4 1.181130 1.023333 1.117149 1.197184 1.138531 1.161526
Pattern_4 1.366554 1.321429 1.325658 1.286721 1.396295 1.410640
Pattern_4 1.264632 1.241881 1.271880 1.194321 1.131870 0.881551
Pattern_4 0.818934 0.707318 0.656224 0.631528 0.540243 0.582279
Pattern_4 0.532674 0.581085 0.618819 0.733081 0.802348 0.921096
Pattern_4 0.974946 0.996390 1.107380 1.338746 1.346637 1.462103
Pattern_4 1.524753 1.460665 1.466715 1.587518 1.422040 1.452274
Pattern_4 1.396944 1.214090 1.380137 1.260238 1.132401 1.185641
Pattern_4 1.261132 1.080059 1.149156 1.179346 1.280778 1.225192
Pattern_4 1.291294 1.454574 1.379321 1.373110 1.376145 1.252501
Pattern_4 1.253937 1.277782 1.204024 1.080246 1.041909 0.999466
Pattern_4 0.848666 0.664240 0.631308 0.593734 0.539668 0.553493
Pattern_4 0.540420 0.661996 0.654157 0.702838 0.795441 0.864002
Pattern_4 1.034214 1.056666 1.327024 1.324050 1.415512 1.390822
Pattern_4 1.430547 1.499253 1.442611 1.532447 1.561221 1.399399
Pattern_4 1.411444 1.369427 1.412356 1.349932 1.114764 1.281356
Pattern_4 1.194550 1.221018 1.147057 1.147648 1.234915 1.324795
Pattern_4 1.293218 1.266521 1.285270 1.510541 1.379667 1.368427
Pattern_4 1.323105 1.254578 1.134959 1.142602 1.063870 0.897845
Pattern_4 0.916480 0.744107 0.685402 0.589736 0.599729 0.546469
Pattern_4 0.573923 0.649517 0.674361 0.650302 0.923142 1.002322
Pattern_4 0.997839 1.109307 1.308858 1.379826 1.378374 1.433892
Pattern_4 1.591017 1.532238 1.547594 1.399884 1.508664 1.374309
Pattern_4 1.305466 1.225673 1.276242 1.324951 1.180724 1.208598
Pattern_4 1.166038 1.204742 1.103860 1.228761 1.444526 1.299745
Pattern_4 1.194202 1.338326 1.263418 1.276680 1.388181 1.371548
Pattern_4 1.282049 1.204934 1.198529 1.112104 1.178645 1.035586
Pattern_4 0.841029 0.819902 0.712495 0.680275 0.574237 0.575147
Pattern_4 0.582357 0.673497 0.747971 0.805929 0.877957 1.018330
Pattern_4 1.087248 1.195675 1.354698 1.394375 1.500297 1.665295
Pattern_4 1.625742 1.717701 1.736751 1.697038 1.642177 1.567938
Pattern_4 1.529333 1.412405 1.481256 1.303734 1.319035 1.274636
Pattern_4 1.312421 1.217463 1.199751 1.333936 1.312204 1.248626
Pattern_4 1.356612 1.319871 1.376462 1.284928 1.258290 1.257448
Pattern_4 1.308736 1.271505 1.067064 1.153141 1.027235 0.957526
Pattern_4 0.965701 0.908161 0.710398 0.774809 0.652161 0.659055
Pattern_4 0.620283 0.607812 0.628890 0.609022 0.660845 0.741372
Pattern_4 0.856595 0.917892 1.022405 1.075863 1.309100 1.198092
Pattern_4 1.354432 1.524944 1.487040 1.479902 1.511417 1.415455
Pattern_4 1.348703 1.347494 1.308228 1.333285 1.361708 1.293988
Pattern_4 1.315527 1.131542 1.322492 1.359233 1.325893 1.253009
Pattern_4 1.342368 1.367172 1.178347 1.385602 1.165385 1.124784
Pattern_4 1.189787 1.110285 1.125301 1.012518 0.961083 0.918321
Pattern_4 0.852319 0.811084 0.762317 0.678376 0.656771 0.635507
Pattern_4 0.670255 0.617203 0.652792 0.638428 0.634865 0.680685
Pattern_4 0.754245 0.740200 0.892277 0.861177 1.063372 1.097744
Pattern_4 1.157557 1.200756 1.324847 1.339077 1.427223 1.305399
Pattern_4 1.409409 1.236365 1.261706 1.224574 1.197380 1.188248
Pattern_4 1.171715 1.018175 1.121206 1.155353 1.043981 1.215892
Pattern_4 1.274183 1.280775 1.213780 1.239546 1.266030 1.404017
Pattern_4 1.247121 1.227027 1.151397 1.054150 0.929176 0.873727
Pattern_4 0.763649 0.775876 0.697302 0.655109 0.537691 0.515930
Pattern_4 0.561623 0.641658 0.603027 0.726520 0.783991 0.916977
Pattern_4 0.989181 1.074979 1.117384 1.330504 1.559811 1.479508
Pattern_4 1.593636 1.664457 1.511336 1.738495 1.590242 1.630500
Pattern_4 1.439750 1.497710 1.247492 1.181723 1.309572 1.281198
Pattern_4 1.220602 1.043091 1.116795 1.183527 1.108257 1.120644
Pattern_4 1.191345 1.271135 1.309214 1.393559 1.229479 1.395695
Pattern_4 1.411683 1.267587 1.110988 1.070436 1.169061 0.989835
Pattern_4 0.934210 0.786734 0.710880 0.600882 0.592947 0.549336
Pattern_4 0.593993 0.631483 0.598922 0.709264 0.792719 0.874403
Pattern_4 0.967305 1.146484 1.202034 1.353906 1.332105 1.373645
Pattern_4 1.611221 1.609481 1.424901 1.529397 1.400599 1.517418
Pattern_4 1.339204 1.353881 1.365694 1.241853 1.203207 1.157959
Pattern_4 1.120554 1.185100 1.083714 1.139803 1.383725 1.236818
Pattern_4 1.198229 1.339522 1.246289 1.423251 1.338682 1.374274
Pattern_4 1.285079 1.423922 1.334588 1.253024 0.997263 0.880273
Pattern_4 0.950611 0.792791 0.657080 0.582681 0.531627 0.558681
Pattern_4 0.569315 0.611706 0.664811 0.750517 0.892380 0.936333
Pattern_4 1.081808 1.186638 1.305595 1.370965 1.324173 1.502265
Pattern_4 1.532640 1.645761 1.647962 1.450671 1.471867 1.628913
Pattern_4 1.418259 1.372503 1.365965 1.272047 1.157396 1.300377
Pattern_4 1.261437 1.234474 1.302143 1.219385 1.219352 1.267888
Pattern_4 1.374278 1.325666 1.267053 1.305233 1.374447 1.384678
Pattern_4 1.341049 1.371545 1.219352 1.094055 1.115348 0.885760
Pattern_4 0.876201 0.789283 0.639847 0.646788 0.592074 0.530661
Pattern_4 0.556759 0.613653 0.658266 0.755660 0.859044 0.907904
Pattern_4 0.878420 1.149983 1.268708 1.319646 1.400787 1.447930
Pattern_4 1.538242 1.575278 1.451657 1.458736 1.526861 1.444361
Pattern_4 1.417444 1.324611 1.435132 1.234223 1.277162 1.207365
Pattern_4 1.255778 1.176768 1.209771 1.262393 1.194004 1.366612
Pattern_4 1.240975 1.405860 1.384594 1.407661 1.451018 1.346532
Pattern_4 1.400906 1.314895 1.307031 1.144343 1.090684 0.996892
Pattern_4 0.920271 0.803760 0.758276 0.670143 0.648996 0.615599
Pattern_4 0.582601 0.647808 0.697741 0.796977 0.849025 1.057417
Pattern_4 1.172992 1.211437 1.239352 1.494647 1.550999 1.568211
Pattern_4 1.657035 1.812862 1.811792 1.618186 1.597498 1.723967
Pattern_4 1.466059 1.470784 1.376727 1.282664 1.209723 1.428735
Pattern_4 1.353952 1.224435 1.330861 1.204454 1.252113 1.310620
Pattern_4 1.359851 1.272441 1.329473 1.400055 1.307275 1.299091
Pattern_4 1.269062 1.170040 1.201050 1.054845 1.049773 1.078058
Pattern_4 0.960562 0.771135 0.826813 0.776838 0.732791 0.684286