; Filename: ../Network_Originals/Hanoi_CMH.inp
; WNTR: 0.4.0
; Created: 2022-11-16 12:23:43
[TITLE]

[JUNCTIONS]
;ID                      Elevation       Demand Pattern                 
 2                                 30          247.22 Pattern_2                  ;
 3                                 30          236.11 Pattern_3                  ;
 4                                 30           36.11 Pattern_4                  ;
 5                                 30          201.39 Pattern_5                  ;
 6                                 30          279.17 Pattern_6                  ;
 7                                 30             375 Pattern_7                  ;
 8                                 30          152.78 Pattern_8                  ;
 9                                 30          145.83 Pattern_9                  ;
 10                                30          145.83 Pattern_10                 ;
 11                                30          138.89 Pattern_11                 ;
 12                                30          155.56 Pattern_12                 ;
 13                                30          261.11 Pattern_13                 ;
 14                                30          170.83 Pattern_14                 ;
 15                                30           77.78 Pattern_15                 ;
 16                                30           86.11 Pattern_16                 ;
 17                                30          240.28 Pattern_17                 ;
 18                                30          373.61 Pattern_18                 ;
 19                                30           16.67 Pattern_19                 ;
 20                                30          354.17 Pattern_20                 ;
 21                                30          258.33 Pattern_21                 ;
 22                                30          134.72 Pattern_22                 ;
 23                                30          290.28 Pattern_23                 ;
 24                                30          227.78 Pattern_24                 ;
 25                                30           47.22 Pattern_25                 ;
 26                                30             250 Pattern_26                 ;
 27                                30          102.78 Pattern_27                 ;
 28                                30           80.56 Pattern_28                 ;
 29                                30             100 Pattern_29                 ;
 30                                30             100 Pattern_30                 ;
 31                                30           29.17 Pattern_31                 ;
 32                                30          223.61 Pattern_32                 ;

[RESERVOIRS]
;ID                                   Head                  Pattern
 1                                100                            ;

[TANKS]
;ID                              Elevation           Init Level            Min Level            Max Level             Diameter           Min Volume Volume Curve         Overflow            

[PIPES]
;ID                   Node1                Node2                              Length             Diameter            Roughness           Minor Loss               Status
 1                    1                    2                                100            1016             130               0                 Open   ;
 2                    2                    3                               1350            1016             130               0                 Open   ;
 3                    3                    4                                900            1016             130               0                 Open   ;
 4                    4                    5                               1150            1016             130               0                 Open   ;
 5                    5                    6                               1450            1016             130               0                 Open   ;
 6                    6                    7                                450            1016             130               0                 Open   ;
 7                    7                    8                                850            1016             130               0                 Open   ;
 8                    8                    9                                850            1016             130               0                 Open   ;
 9                    9                    10                               800            1016             130               0                 Open   ;
 10                   10                   11                               950             762             130               0                 Open   ;
 11                   11                   12                              1200             762             130               0                 Open   ;
 12                   12                   13                              3500           609.6             130               0                 Open   ;
 13                   10                   14                               800           406.4             130               0                 Open   ;
 14                   14                   15                               500           406.4             130               0                 Open   ;
 15                   15                   16                               550           304.8             130               0                 Open   ;
 16                   17                   16                              2730           406.4             130               0                 Open   ;
 17                   17                   18                              1750             508             130               0                 Open   ;
 18                   18                   19                               800           609.6             130               0                 Open   ;
 19                   19                   3                                400           609.6             130               0                 Open   ;
 20                   3                    20                              2200            1016             130               0                 Open   ;
 21                   20                   21                              1500             508             130               0                 Open   ;
 22                   21                   22                               500           304.8             130               0                 Open   ;
 23                   20                   23                              2650            1016             130               0                 Open   ;
 24                   23                   24                              1230             762             130               0                 Open   ;
 25                   24                   25                              1300             762             130               0                 Open   ;
 26                   26                   25                               850             508             130               0                 Open   ;
 27                   27                   26                               300           304.8             130               0                 Open   ;
 28                   16                   27                               750           304.8             130               0                 Open   ;
 29                   23                   28                              1500           406.4             130               0                 Open   ;
 30                   28                   29                              2000           406.4             130               0                 Open   ;
 31                   29                   30                              1600           304.8             130               0                 Open   ;
 32                   30                   31                               150           304.8             130               0                 Open   ;
 33                   32                   31                               860           406.4             130               0                 Open   ;
 34                   25                   32                               950             508             130               0                 Open   ;

[PUMPS]
;ID                   Node1                Node2                Properties          

[VALVES]
;ID                   Node1                Node2                            Diameter Type              Setting           Minor Loss

[TAGS]
;type      name       tag       

[DEMANDS]
;ID        Demand     Pattern   

[STATUS]
;ID        Setting   

[PATTERNS]
;ID        Multipliers

Pattern_2 0.788998 0.708786 0.711550 0.635263 0.611647 0.607858
Pattern_2 0.547352 0.592625 0.572325 0.625097 0.668399 0.660684
Pattern_2 0.723161 0.770365 0.829922 0.901499 0.908015 1.063905
Pattern_2 1.285592 1.316636 1.258927 1.327854 1.317162 1.449087
Pattern_2 1.298140 1.301806 1.342544 1.335151 1.219795 1.167275
Pattern_2 1.232032 1.149911 1.196475 1.103157 1.140405 1.080296
Pattern_2 1.087550 1.200614 1.218834 1.267622 1.321656 1.185928
Pattern_2 1.163229 1.133427 1.042562 1.016330 0.939024 0.746870
Pattern_2 0.686562 0.630214 0.603995 0.560096 0.509051 0.481049
Pattern_2 0.521298 0.518639 0.576053 0.612743 0.713723 0.861196
Pattern_2 0.983149 1.068457 1.179737 1.273992 1.401234 1.530922
Pattern_2 1.629467 1.559248 1.717430 1.516740 1.650940 1.530100
Pattern_2 1.388823 1.379777 1.304636 1.274821 1.260682 1.199973
Pattern_2 1.130882 1.077436 1.073027 1.011689 1.057793 1.206917
Pattern_2 1.216838 1.217980 1.263069 1.280933 1.254604 1.292295
Pattern_2 1.303891 1.197618 1.181053 1.078686 0.970171 0.882742
Pattern_2 0.821058 0.777951 0.644670 0.592963 0.540252 0.536307
Pattern_2 0.527497 0.517905 0.611228 0.620643 0.724268 0.828981
Pattern_2 0.907172 1.056476 1.116103 1.233299 1.282250 1.383596
Pattern_2 1.510365 1.295202 1.462756 1.590218 1.533485 1.533285
Pattern_2 1.562886 1.448529 1.385101 1.375980 1.259690 1.189637
Pattern_2 1.146015 1.069681 1.143395 1.310570 1.185880 1.384246
Pattern_2 1.324891 1.342662 1.409779 1.290379 1.294353 1.368423
Pattern_2 1.217635 1.182118 1.105281 1.017214 1.085182 0.827306
Pattern_2 0.771940 0.709102 0.631922 0.619217 0.503373 0.459127
Pattern_2 0.500435 0.572812 0.575705 0.719400 0.855549 0.844429
Pattern_2 1.086187 1.068864 1.226811 1.362752 1.425383 1.675656
Pattern_2 1.547517 1.439020 1.590200 1.442056 1.720801 1.621564
Pattern_2 1.613618 1.479333 1.335697 1.289656 1.284921 1.296843
Pattern_2 1.175828 1.339257 1.177003 1.302430 1.331240 1.351806
Pattern_2 1.379478 1.191247 1.241928 1.230330 1.218003 1.208575
Pattern_2 1.264614 1.138925 1.208709 1.090256 0.991473 0.900885
Pattern_2 0.819822 0.721158 0.616388 0.612071 0.486844 0.509010
Pattern_2 0.555440 0.574278 0.643576 0.696696 0.848519 0.856229
Pattern_2 1.029634 1.127291 1.239194 1.203762 1.449536 1.469821
Pattern_2 1.576028 1.492888 1.619938 1.596164 1.542934 1.472347
Pattern_2 1.418824 1.460358 1.354503 1.376483 1.361267 1.220577
Pattern_2 1.147797 1.219929 1.312895 1.270914 1.133596 1.262757
Pattern_2 1.258661 1.288489 1.381747 1.283320 1.283546 1.268414
Pattern_2 1.176048 1.256735 1.156753 1.036393 1.021032 0.965513
Pattern_2 0.818935 0.755261 0.753889 0.598366 0.532094 0.558346
Pattern_2 0.521587 0.585443 0.647943 0.769546 0.820541 1.026758
Pattern_2 1.164573 1.301369 1.273108 1.386236 1.636210 1.705579
Pattern_2 1.596889 1.744868 1.732313 1.586855 1.534424 1.627978
Pattern_2 1.590069 1.569129 1.404582 1.253449 1.396256 1.264001
Pattern_2 1.230988 1.342629 1.297644 1.348310 1.335826 1.137201
Pattern_2 1.331976 1.371392 1.237372 1.314402 1.304166 1.386411
Pattern_2 1.329071 1.121874 1.091921 1.133575 1.062848 1.027320
Pattern_2 0.860186 0.888192 0.756957 0.726096 0.576757 0.598745
Pattern_2 0.611633 0.626941 0.607782 0.604532 0.643427 0.782524
Pattern_2 0.834328 0.998645 1.023397 1.181290 1.050250 1.193073
Pattern_2 1.370139 1.482908 1.487547 1.536881 1.530165 1.427813
Pattern_2 1.335449 1.460115 1.311885 1.488047 1.366554 1.295440
Pattern_2 1.279533 1.336323 1.182520 1.220637 1.302706 1.276456
Pattern_2 1.394868 1.377457 1.194497 1.327277 1.273333 1.078121
Pattern_2 1.073065 1.105815 0.903175 1.020811 0.867826 0.840454
Pattern_2 0.774804 0.756716 0.706148 0.667366 0.627781 0.629655
Pattern_2 0.612421 0.537386 0.544325 0.593112 0.646659 0.669802
Pattern_2 0.727568 0.779143 0.825013 0.993932 0.962148 1.165377
Pattern_2 1.117073 1.248182 1.434463 1.400309 1.428365 1.273793
Pattern_2 1.299512 1.357689 1.168472 1.338236 1.272933 1.217938
Pattern_2 1.158285 1.275264 1.095376 1.231815 1.193843 1.185976
Pattern_2 1.283931 1.215096 1.225583 1.202225 1.233039 1.182811
Pattern_2 1.110039 1.085709 1.109556 0.973813 0.970928 0.774716
Pattern_2 0.781026 0.669616 0.674630 0.598703 0.478625 0.552376
Pattern_2 0.514919 0.561739 0.577310 0.658412 0.816961 0.869986
Pattern_2 0.974224 1.101212 1.330205 1.220454 1.390302 1.493934
Pattern_2 1.641314 1.606858 1.660033 1.637785 1.491159 1.622885
Pattern_2 1.519344 1.425815 1.394695 1.424778 1.303996 1.191661
Pattern_2 1.212799 1.102573 1.278603 1.019035 1.106690 1.137973
Pattern_2 1.222555 1.297070 1.376038 1.357309 1.346606 1.344929
Pattern_2 1.329170 1.209594 1.169932 1.072288 1.035569 0.923326
Pattern_2 0.798886 0.721905 0.687131 0.647543 0.574958 0.490929
Pattern_2 0.524269 0.522503 0.635089 0.674449 0.848227 0.864754
Pattern_2 0.935331 1.061662 1.207438 1.364809 1.438533 1.497955
Pattern_2 1.508974 1.580465 1.435374 1.643205 1.644887 1.488093
Pattern_2 1.465390 1.512090 1.404068 1.329810 1.269502 1.123144
Pattern_2 1.339849 1.215601 1.114489 1.192322 1.128466 1.352402
Pattern_2 1.289228 1.283262 1.403585 1.372529 1.372746 1.480991
Pattern_2 1.232183 1.305544 1.211354 1.110475 1.029412 0.862368
Pattern_2 0.824446 0.751428 0.651999 0.609781 0.607728 0.558349
Pattern_2 0.561290 0.618766 0.700208 0.712928 0.758482 0.924377
Pattern_2 0.933288 1.140262 1.323215 1.223722 1.497042 1.683350
Pattern_2 1.523966 1.505893 1.484702 1.600790 1.524952 1.468758
Pattern_2 1.579704 1.593985 1.505141 1.377943 1.293978 1.410251
Pattern_2 1.342751 1.194026 1.209990 1.250154 1.227281 1.164859
Pattern_2 1.197102 1.329582 1.271715 1.436884 1.350675 1.379886
Pattern_2 1.319308 1.195984 1.150181 1.104619 0.962433 0.943735
Pattern_2 0.876386 0.764569 0.688946 0.648252 0.565042 0.507463
Pattern_2 0.566392 0.623443 0.582632 0.715110 0.835999 0.877877
Pattern_2 1.014939 1.098588 1.165826 1.362393 1.378272 1.395008
Pattern_2 1.474982 1.604916 1.565839 1.590843 1.516852 1.446330
Pattern_2 1.387774 1.387778 1.329657 1.286402 1.246941 1.251774
Pattern_2 1.208474 1.215128 1.098819 1.193031 1.237438 1.307594
Pattern_2 1.371141 1.329984 1.317280 1.414977 1.260068 1.375319
Pattern_2 1.185288 1.171354 1.176251 1.168683 1.082935 0.996871
Pattern_2 0.846622 0.760410 0.660360 0.627679 0.592963 0.532367
Pattern_2 0.506632 0.614734 0.706794 0.776095 0.860550 0.974028
Pattern_2 1.153914 1.209818 1.397697 1.424125 1.640794 1.659263
Pattern_2 1.616982 1.717771 1.789971 1.815385 1.718362 1.680883
Pattern_2 1.695433 1.453344 1.498483 1.437396 1.371229 1.394997
Pattern_2 1.297016 1.335963 1.243210 1.314322 1.428453 1.282573
Pattern_2 1.355605 1.177745 1.358701 1.194803 1.352260 1.282388
Pattern_2 1.338654 1.222978 1.140111 1.096203 1.062274 0.954988
Pattern_2 0.900994 0.859084 0.721331 0.678578 0.679762 0.582891
Pattern_2 0.583044 0.635073 0.561619 0.644126 0.678719 0.806162
Pattern_2 0.816557 1.057058 1.091983 1.155962 1.211539 1.365528
Pattern_2 1.302286 1.461828 1.524781 1.432993 1.480488 1.547791
Pattern_2 1.421634 1.515394 1.515597 1.417368 1.409420 1.422780
Pattern_2 1.332734 1.410302 1.477740 1.324347 1.318442 1.318517
Pattern_2 1.388586 1.243107 1.293032 1.161590 1.216847 1.125889
Pattern_2 1.066503 1.198968 1.074133 0.896408 0.905019 0.785850
Pattern_2 0.794149

Pattern_3 0.817078 0.725250 0.763429 0.693660 0.658077 0.635168
Pattern_3 0.622587 0.560975 0.566902 0.654233 0.625409 0.645457
Pattern_3 0.668582 0.781824 0.901996 0.883827 1.022327 1.002304
Pattern_3 1.059530 1.158936 1.210821 1.374942 1.159461 1.398524
Pattern_3 1.431735 1.210825 1.204595 1.246922 1.241007 1.152821
Pattern_3 1.175700 1.131875 1.113998 1.111199 1.217507 1.173106
Pattern_3 1.211105 1.276751 1.406537 1.227797 1.329187 1.280611
Pattern_3 1.284131 1.153168 1.194832 1.135375 0.957936 0.947943
Pattern_3 0.774495 0.774571 0.697109 0.635903 0.554344 0.530613
Pattern_3 0.519822 0.587292 0.593776 0.713507 0.745452 0.875435
Pattern_3 0.944150 1.142171 1.240719 1.249126 1.414887 1.494381
Pattern_3 1.565306 1.551641 1.525979 1.652228 1.593775 1.645691
Pattern_3 1.297155 1.427442 1.334372 1.195244 1.226820 1.169045
Pattern_3 1.096127 1.152175 1.002359 1.116355 1.162793 1.267796
Pattern_3 1.256207 1.218716 1.312167 1.419548 1.306957 1.447247
Pattern_3 1.424370 1.358610 1.362053 1.144854 1.144399 0.992342
Pattern_3 0.929317 0.796003 0.706180 0.665731 0.590932 0.589395
Pattern_3 0.543421 0.584133 0.656263 0.730658 0.784953 0.847818
Pattern_3 0.991521 1.033854 1.132538 1.188290 1.300988 1.379440
Pattern_3 1.535023 1.676381 1.442126 1.388293 1.538469 1.342692
Pattern_3 1.326642 1.312571 1.366718 1.142109 1.305367 1.186435
Pattern_3 1.138861 1.291561 1.141747 1.241115 1.178808 1.275342
Pattern_3 1.235017 1.250383 1.267242 1.331788 1.365470 1.422390
Pattern_3 1.312714 1.307451 1.190665 1.204606 1.035012 0.981661
Pattern_3 0.888216 0.727179 0.686755 0.578229 0.573003 0.544954
Pattern_3 0.601008 0.619132 0.677537 0.818515 0.793110 0.890404
Pattern_3 1.037738 1.108052 1.210715 1.223362 1.443572 1.305941
Pattern_3 1.533729 1.485142 1.471842 1.437466 1.551150 1.349135
Pattern_3 1.305515 1.532180 1.325608 1.286138 1.300934 1.163051
Pattern_3 1.188277 1.303229 1.294314 1.279054 1.188393 1.313225
Pattern_3 1.291175 1.520763 1.318669 1.389541 1.403358 1.433269
Pattern_3 1.399155 1.235907 1.151371 1.144269 1.078833 0.954574
Pattern_3 0.898468 0.782576 0.737612 0.569459 0.634527 0.557462
Pattern_3 0.581467 0.615781 0.623576 0.668534 0.819985 0.816977
Pattern_3 0.937153 1.163111 1.201252 1.285024 1.338981 1.481562
Pattern_3 1.470743 1.548729 1.481470 1.494600 1.400894 1.462485
Pattern_3 1.421820 1.265102 1.226717 1.309791 1.198997 1.182801
Pattern_3 1.126152 1.262485 1.258288 1.298976 1.245134 1.243754
Pattern_3 1.213919 1.452955 1.504491 1.403468 1.416527 1.233430
Pattern_3 1.483288 1.275911 1.293163 1.163899 1.163218 0.961509
Pattern_3 0.824331 0.789268 0.675884 0.669835 0.642707 0.576498
Pattern_3 0.662425 0.627278 0.647148 0.768133 0.915026 0.968252
Pattern_3 1.168506 1.298640 1.449961 1.548874 1.664786 1.661976
Pattern_3 1.656706 1.847404 1.611765 1.643919 1.637615 1.535275
Pattern_3 1.490256 1.502479 1.294593 1.392949 1.478580 1.217558
Pattern_3 1.173086 1.195190 1.161298 1.250596 1.277609 1.313993
Pattern_3 1.213975 1.418193 1.265786 1.343564 1.446162 1.265683
Pattern_3 1.365066 1.253033 1.203511 1.178436 1.118095 1.013033
Pattern_3 0.925181 0.889433 0.777242 0.738129 0.676658 0.628534
Pattern_3 0.601636 0.590221 0.651411 0.695196 0.734819 0.806595
Pattern_3 0.882990 0.999203 1.043875 1.080945 1.226283 1.217537
Pattern_3 1.323354 1.450594 1.301145 1.559989 1.325147 1.339737
Pattern_3 1.388942 1.320853 1.326031 1.284089 1.291461 1.213280
Pattern_3 1.339155 1.159218 1.359977 1.369267 1.424282 1.317331
Pattern_3 1.315434 1.347811 1.243874 1.282640 1.168545 1.271630
Pattern_3 1.122236 1.061901 1.050621 1.058531 0.940290 0.885542
Pattern_3 0.888938 0.814689 0.757045 0.751747 0.677541 0.642093
Pattern_3 0.599461 0.627831 0.618993 0.618433 0.661975 0.651706
Pattern_3 0.749265 0.776224 0.837468 0.949686 1.073946 1.090339
Pattern_3 1.161793 1.210200 1.332720 1.264933 1.350570 1.331517
Pattern_3 1.335293 1.225615 1.204709 1.257271 1.250252 1.187165
Pattern_3 1.134994 1.109272 1.169288 1.101625 1.222802 1.241421
Pattern_3 1.402155 1.242036 1.298410 1.257967 1.392076 1.268254
Pattern_3 1.159281 1.175964 1.297227 1.098865 0.986942 0.826642
Pattern_3 0.826508 0.738728 0.667069 0.590211 0.548059 0.533357
Pattern_3 0.579983 0.585323 0.617612 0.636753 0.838969 0.836880
Pattern_3 1.060019 1.108068 1.253047 1.294829 1.289129 1.514455
Pattern_3 1.518498 1.621920 1.573947 1.596334 1.618392 1.499623
Pattern_3 1.408835 1.447408 1.262719 1.231902 1.106664 1.169425
Pattern_3 1.234234 1.168893 1.103680 1.170061 1.138317 1.158428
Pattern_3 1.208699 1.404413 1.307055 1.455119 1.355411 1.312131
Pattern_3 1.385395 1.192145 1.273993 1.232497 1.101845 0.996985
Pattern_3 0.901387 0.813190 0.715958 0.640996 0.651077 0.572151
Pattern_3 0.584903 0.587661 0.665838 0.738595 0.799794 0.859335
Pattern_3 0.949495 1.141132 1.159481 1.283238 1.392928 1.489122
Pattern_3 1.568336 1.592730 1.466768 1.543191 1.563177 1.356854
Pattern_3 1.380473 1.348290 1.324590 1.264206 1.096077 1.214362
Pattern_3 1.129832 1.175675 1.216064 1.242575 1.324986 1.295274
Pattern_3 1.368262 1.344021 1.448277 1.351086 1.351138 1.521224
Pattern_3 1.329445 1.317119 1.280351 1.253871 1.104002 0.977365
Pattern_3 0.844660 0.788634 0.626463 0.626573 0.575081 0.557953
Pattern_3 0.558489 0.582486 0.650021 0.729422 0.816454 0.879628
Pattern_3 1.032220 1.091225 1.160929 1.197082 1.358833 1.596947
Pattern_3 1.571335 1.475178 1.440812 1.512119 1.526962 1.492632
Pattern_3 1.442840 1.457774 1.350313 1.276018 1.355622 1.291015
Pattern_3 1.330330 1.157717 1.147065 1.185970 1.301766 1.215435
Pattern_3 1.372218 1.385061 1.329116 1.288504 1.318301 1.407623
Pattern_3 1.381184 1.300711 1.348715 1.120039 0.998791 1.013461
Pattern_3 0.926784 0.806348 0.723047 0.671811 0.593147 0.619368
Pattern_3 0.599496 0.577378 0.709922 0.779783 0.835911 0.920513
Pattern_3 1.013115 1.179198 1.219229 1.393773 1.393032 1.416129
Pattern_3 1.546085 1.463346 1.470752 1.330699 1.478671 1.356613
Pattern_3 1.434608 1.255379 1.464996 1.274562 1.207991 1.185442
Pattern_3 1.182709 1.230930 1.276165 1.168588 1.334335 1.423584
Pattern_3 1.288347 1.210155 1.369926 1.366840 1.498228 1.281165
Pattern_3 1.399821 1.373770 1.310164 1.294747 1.050044 0.941216
Pattern_3 1.025357 0.846609 0.703863 0.698791 0.628449 0.637600
Pattern_3 0.575150 0.622332 0.743651 0.759426 0.859322 0.942559
Pattern_3 1.184603 1.261335 1.520688 1.407746 1.665302 1.478432
Pattern_3 1.858794 1.770337 1.823681 1.689330 1.542395 1.478173
Pattern_3 1.555871 1.499364 1.388694 1.309916 1.363988 1.249563
Pattern_3 1.295729 1.319711 1.374827 1.361430 1.310853 1.362723
Pattern_3 1.353126 1.342799 1.216420 1.344239 1.472083 1.309334
Pattern_3 1.282176 1.212126 1.236711 1.199709 1.123772 1.007841
Pattern_3 0.983787 0.940771 0.742190 0.746859 0.688207 0.648650
Pattern_3 0.622522 0.657930 0.584524 0.662756 0.737025 0.744128
Pattern_3 0.882401 0.947559 1.066371 1.062667 1.202822 1.242236
Pattern_3 1.444300 1.463547 1.453132 1.404979 1.520741 1.448039
Pattern_3 1.407629 1.448035 1.338132 1.304014 1.391815 1.194255
Pattern_3 1.150069 1.358300 1.322057 1.369011 1.292626 1.465006
Pattern_3 1.197099 1.301493 1.340949 1.359645 1.243950 1.286463
Pattern_3 1.190753 1.082401 1.159697 1.082194 0.896234 0.896774
Pattern_3 0.881722

Pattern_4 0.836960 0.783137 0.718158 0.722174 0.677270 0.610384
Pattern_4 0.653313 0.616119 0.628620 0.551966 0.614344 0.637619
Pattern_4 0.686872 0.764920 0.826710 0.984337 0.902402 1.078907
Pattern_4 1.112246 1.171950 1.371112 1.380400 1.354701 1.306175
Pattern_4 1.405417 1.219261 1.370633 1.291390 1.362542 1.074868
Pattern_4 1.168557 1.088381 1.087701 1.230246 1.153050 1.124940
Pattern_4 1.262860 1.118267 1.265484 1.238946 1.184534 1.224894
Pattern_4 1.149496 1.020914 1.059886 1.043440 0.997862 0.879092
Pattern_4 0.813684 0.776782 0.662596 0.557942 0.569471 0.533964
Pattern_4 0.541521 0.570416 0.629683 0.696726 0.735522 0.918838
Pattern_4 1.006853 0.978485 1.107201 1.333832 1.268757 1.287072
Pattern_4 1.479727 1.593623 1.525196 1.652064 1.580279 1.572002
Pattern_4 1.576683 1.514924 1.277862 1.169845 1.127444 1.204378
Pattern_4 1.119792 0.986793 1.134018 1.040647 1.187924 1.200531
Pattern_4 1.300055 1.190665 1.320911 1.366225 1.259384 1.273848
Pattern_4 1.407678 1.300892 1.203055 1.108902 1.146273 0.916873
Pattern_4 0.928038 0.764570 0.645273 0.661267 0.546984 0.531888
Pattern_4 0.605661 0.599758 0.675059 0.718103 0.748400 0.835296
Pattern_4 0.857853 0.979004 1.191775 1.221511 1.331182 1.396533
Pattern_4 1.463161 1.522169 1.492349 1.553643 1.481562 1.458619
Pattern_4 1.453896 1.321501 1.240109 1.254392 1.071753 1.236467
Pattern_4 1.108759 1.052083 1.171779 1.186381 1.221226 1.200388
Pattern_4 1.281106 1.279751 1.270180 1.430283 1.314784 1.340499
Pattern_4 1.217267 1.282390 1.274582 1.132657 1.032969 0.883107
Pattern_4 0.846286 0.707527 0.661254 0.518489 0.562661 0.561124
Pattern_4 0.597463 0.578148 0.661110 0.715278 0.827300 0.900524
Pattern_4 0.946525 1.203160 1.326787 1.277419 1.333221 1.445620
Pattern_4 1.441794 1.431905 1.511431 1.469773 1.364618 1.373858
Pattern_4 1.438657 1.348681 1.399494 1.131062 1.355008 1.296320
Pattern_4 1.217892 1.106676 1.168429 1.256342 1.230968 1.263217
Pattern_4 1.267934 1.318375 1.350787 1.403532 1.292721 1.476775
Pattern_4 1.396517 1.266816 1.103061 1.101927 1.046726 0.919764
Pattern_4 0.814435 0.841150 0.690017 0.583974 0.572022 0.507387
Pattern_4 0.578140 0.550338 0.666019 0.683390 0.859333 0.941901
Pattern_4 0.968887 1.190406 1.165514 1.354984 1.461655 1.438018
Pattern_4 1.415971 1.534730 1.578515 1.677363 1.436964 1.339134
Pattern_4 1.355808 1.354170 1.259656 1.236916 1.165662 1.273070
Pattern_4 1.121676 1.160734 1.211309 1.226713 1.253018 1.305748
Pattern_4 1.343345 1.172335 1.447012 1.378682 1.428412 1.333074
Pattern_4 1.245717 1.444641 1.253440 1.136849 0.987234 0.959893
Pattern_4 0.877068 0.848278 0.761895 0.694981 0.588530 0.607741
Pattern_4 0.624606 0.560555 0.688912 0.714504 0.881843 1.016559
Pattern_4 1.090208 1.295640 1.506477 1.495832 1.561838 1.553338
Pattern_4 1.465150 1.635516 1.870236 1.725098 1.487070 1.514327
Pattern_4 1.484926 1.354734 1.368283 1.330023 1.304123 1.208823
Pattern_4 1.156920 1.316325 1.229003 1.262189 1.284753 1.241805
Pattern_4 1.169485 1.337763 1.238466 1.189001 1.238860 1.330595
Pattern_4 1.268646 1.213616 1.200073 1.092099 1.217047 0.928086
Pattern_4 0.890061 0.873946 0.759145 0.641528 0.616147 0.625961
Pattern_4 0.662570 0.637215 0.632292 0.709245 0.704035 0.746990
Pattern_4 0.778723 0.924339 1.006581 1.234843 1.192905 1.356981
Pattern_4 1.229653 1.332362 1.382885 1.432303 1.376662 1.615245
Pattern_4 1.488144 1.351649 1.341710 1.243646 1.246017 1.320566
Pattern_4 1.179611 1.289566 1.264411 1.281373 1.322836 1.187952
Pattern_4 1.335476 1.193152 1.317812 1.256719 1.279669 1.238497
Pattern_4 1.101640 1.194108 1.042793 0.947051 0.898957 0.962585
Pattern_4 0.785824 0.761483 0.754265 0.687035 0.680443 0.649031
Pattern_4 0.627863 0.612431 0.560007 0.606781 0.620611 0.692829
Pattern_4 0.768831 0.753014 0.841272 0.951279 1.061782 1.151280
Pattern_4 1.163346 1.218335 1.293277 1.285061 1.304613 1.314848
Pattern_4 1.358361 1.325563 1.282572 1.264809 1.210608 1.270579
Pattern_4 1.180295 1.221691 1.215988 1.193812 1.158144 1.292412
Pattern_4 1.195474 1.228887 1.277873 1.192338 1.248735 1.264079
Pattern_4 1.141606 1.190430 1.161760 1.075907 1.004516 0.905097
Pattern_4 0.823278 0.670356 0.618466 0.610825 0.529416 0.563531
Pattern_4 0.518628 0.581069 0.687999 0.680644 0.781429 0.862731
Pattern_4 1.035714 1.144805 1.161635 1.376011 1.383656 1.462477
Pattern_4 1.565430 1.537301 1.623367 1.590156 1.603578 1.445341
Pattern_4 1.546265 1.440006 1.384626 1.246332 1.249948 1.064247
Pattern_4 1.235583 0.975964 1.006940 1.131084 1.323741 1.201055
Pattern_4 1.333091 1.346178 1.316520 1.491860 1.500784 1.269210
Pattern_4 1.397613 1.253922 1.299579 1.192810 1.157795 0.981941
Pattern_4 0.909890 0.763429 0.696253 0.613427 0.635412 0.607285
Pattern_4 0.611695 0.659988 0.599021 0.697397 0.827624 0.862206
Pattern_4 1.063311 1.109160 1.184675 1.239930 1.292351 1.377922
Pattern_4 1.448538 1.523632 1.500552 1.433924 1.493095 1.405441
Pattern_4 1.416168 1.361679 1.208178 1.322984 1.307846 1.211300
Pattern_4 1.237831 1.245527 1.032403 1.138840 1.145369 1.206136
Pattern_4 1.302751 1.478862 1.486650 1.303309 1.296322 1.437818
Pattern_4 1.311197 1.215997 1.196192 1.069107 1.033550 0.971835
Pattern_4 0.845633 0.760333 0.670680 0.588940 0.575945 0.602204
Pattern_4 0.538423 0.590964 0.664172 0.733137 0.866261 0.895680
Pattern_4 1.033161 1.216335 1.281112 1.317696 1.357623 1.272639
Pattern_4 1.437592 1.442628 1.568117 1.453488 1.532807 1.431584
Pattern_4 1.278052 1.399753 1.281757 1.229599 1.317353 1.345517
Pattern_4 1.110745 1.188806 1.142402 1.326127 1.018908 1.241152
Pattern_4 1.375729 1.311352 1.330130 1.394461 1.449468 1.461293
Pattern_4 1.368049 1.311959 1.151127 1.249953 0.966829 0.969863
Pattern_4 0.891721 0.748142 0.711378 0.632687 0.580780 0.554911
Pattern_4 0.580491 0.665460 0.713038 0.734039 0.826108 0.895673
Pattern_4 0.939038 1.234313 1.164081 1.306421 1.385457 1.462849
Pattern_4 1.447270 1.429777 1.589771 1.480080 1.478441 1.373519
Pattern_4 1.493533 1.350790 1.296586 1.216821 1.197080 1.233850
Pattern_4 1.096350 1.218421 1.244198 1.263858 1.348573 1.352407
Pattern_4 1.256951 1.308906 1.347292 1.472432 1.379074 1.480406
Pattern_4 1.127884 1.307349 1.295846 1.193716 1.015447 0.989874
Pattern_4 0.930083 0.855652 0.750172 0.643861 0.573935 0.584540
Pattern_4 0.596370 0.609385 0.651390 0.783362 0.902005 0.956425
Pattern_4 1.213197 1.334674 1.395903 1.528521 1.584307 1.562959
Pattern_4 1.813780 1.640781 1.698341 1.715147 1.648446 1.534621
Pattern_4 1.553769 1.641397 1.458322 1.490447 1.290691 1.380257
Pattern_4 1.314291 1.241920 1.206945 1.288665 1.386672 1.275817
Pattern_4 1.362342 1.379384 1.378588 1.264290 1.286696 1.354246
Pattern_4 1.214150 1.216164 1.261067 1.105523 1.016261 1.002793
Pattern_4 0.956384 0.934034 0.712047 0.759832 0.697329 0.621328