; Filename: ../Network_Originals/Hanoi_CMH.inp
; WNTR: 0.4.0
; Created: 2022-11-16 12:23:48
[TITLE]

[JUNCTIONS]
;ID                      Elevation       Demand Pattern                 
 2                                 30          247.22 Pattern_2                  ;
 3                                 30          236.11 Pattern_3                  ;
 4                                 30           36.11 Pattern_4                  ;
 5                                 30          201.39 Pattern_5                  ;
 6                                 30          279.17 Pattern_6                  ;
 7                                 30             375 Pattern_7                  ;
 8                                 30          152.78 Pattern_8                  ;
 9                                 30          145.83 Pattern_9                  ;
 10                                30          145.83 Pattern_10                 ;
 11                                30          138.89 Pattern_11                 ;
 12                                30          155.56 Pattern_12                 ;
 13                                30          261.11 Pattern_13                 ;
 14                                30          170.83 Pattern_14                 ;
 15                                30           77.78 Pattern_15                 ;
 16                                30           86.11 Pattern_16                 ;
 17                                30          240.28 Pattern_17                 ;
 18                                30          373.61 Pattern_18                 ;
 19                                30           16.67 Pattern_19                 ;
 20                                30          354.17 Pattern_20                 ;
 21                                30          258.33 Pattern_21                 ;
 22                                30          134.72 Pattern_22                 ;
 23                                30          290.28 Pattern_23                 ;
 24                                30          227.78 Pattern_24                 ;
 25                                30           47.22 Pattern_25                 ;
 26                                30             250 Pattern_26                 ;
 27                                30          102.78 Pattern_27                 ;
 28                                30           80.56 Pattern_28                 ;
 29                                30             100 Pattern_29                 ;
 30                                30             100 Pattern_30                 ;
 31                                30           29.17 Pattern_31                 ;
 32                                30          223.61 Pattern_32                 ;

[RESERVOIRS]
;ID                                   Head                  Pattern
 1                                100                            ;

[TANKS]
;ID                              Elevation           Init Level            Min Level            Max Level             Diameter           Min Volume Volume Curve         Overflow            

[PIPES]
;ID                   Node1                Node2                              Length             Diameter            Roughness           Minor Loss               Status
 1                    1                    2                                100            1016             130               0                 Open   ;
 2                    2                    3                               1350            1016             130               0                 Open   ;
 3                    3                    4                                900            1016             130               0                 Open   ;
 4                    4                    5                               1150            1016             130               0                 Open   ;
 5                    5                    6                               1450            1016             130               0                 Open   ;
 6                    6                    7                                450            1016             130               0                 Open   ;
 7                    7                    8                                850            1016             130               0                 Open   ;
 8                    8                    9                                850            1016             130               0                 Open   ;
 9                    9                    10                               800            1016             130               0                 Open   ;
 10                   10                   11                               950             762             130               0                 Open   ;
 11                   11                   12                              1200             762             130               0                 Open   ;
 12                   12                   13                              3500           609.6             130               0                 Open   ;
 13                   10                   14                               800           406.4             130               0                 Open   ;
 14                   14                   15                               500           406.4             130               0                 Open   ;
 15                   15                   16                               550           304.8             130               0                 Open   ;
 16                   17                   16                              2730           406.4             130               0                 Open   ;
 17                   17                   18                              1750             508             130               0                 Open   ;
 18                   18                   19                               800           609.6             130               0                 Open   ;
 19                   19                   3                                400           609.6             130               0                 Open   ;
 20                   3                    20                              2200            1016             130               0                 Open   ;
 21                   20                   21                              1500             508             130               0                 Open   ;
 22                   21                   22                               500           304.8             130               0                 Open   ;
 23                   20                   23                              2650            1016             130               0                 Open   ;
 24                   23                   24                              1230             762             130               0                 Open   ;
 25                   24                   25                              1300             762             130               0                 Open   ;
 26                   26                   25                               850             508             130               0                 Open   ;
 27                   27                   26                               300           304.8             130               0                 Open   ;
 28                   16                   27                               750           304.8             130               0                 Open   ;
 29                   23                   28                              1500           406.4             130               0                 Open   ;
 30                   28                   29                              2000           406.4             130               0                 Open   ;
 31                   29                   30                              1600           304.8             130               0                 Open   ;
 32                   30                   31                               150           304.8             130               0                 Open   ;
 33                   32                   31                               860           406.4             130               0                 Open   ;
 34                   25                   32                               950             508             130               0                 Open   ;

[PUMPS]
;ID                   Node1                Node2                Properties          

[VALVES]
;ID                   Node1                Node2                            Diameter Type              Setting           Minor Loss

[TAGS]
;type      name       tag       

[DEMANDS]
;ID        Demand     Pattern   

[STATUS]
;ID        Setting   

[PATTERNS]
;ID        Multipliers

Pattern_2 0.801600 0.772509 0.707195 0.691435 0.677669 0.562864
Pattern_2 0.666664 0.550599 0.536433 0.581521 0.578891 0.583976
Pattern_2 0.665067 0.684219 0.816148 0.845343 0.876051 0.960366
Pattern_2 0.969950 1.201081 1.251496 1.329152 1.277336 1.247742
Pattern_2 1.332869 1.267605 1.352761 1.255401 1.315191 1.166369
Pattern_2 1.208527 1.089681 1.198526 1.145629 1.136308 1.197331
Pattern_2 1.315144 1.357357 1.263483 1.135492 1.293382 1.232954
Pattern_2 1.195229 1.173930 1.127588 1.024520 0.935085 0.868338
Pattern_2 0.811496 0.748733 0.576089 0.560669 0.502816 0.538322
Pattern_2 0.511349 0.535306 0.582617 0.620838 0.724766 0.770903
Pattern_2 0.864997 1.060132 1.127517 1.164810 1.243380 1.442109
Pattern_2 1.557105 1.600523 1.540487 1.697523 1.574284 1.534317
Pattern_2 1.638062 1.387567 1.279855 1.441201 1.116647 1.142557
Pattern_2 1.020590 1.062004 1.066012 1.105716 1.022959 1.168315
Pattern_2 1.344684 1.191626 1.315805 1.480219 1.244079 1.392118
Pattern_2 1.252235 1.278460 1.252774 1.067893 1.055773 0.993181
Pattern_2 0.848746 0.766634 0.703401 0.579735 0.552095 0.508937
Pattern_2 0.578479 0.584840 0.606356 0.644700 0.767825 0.822935
Pattern_2 1.016532 1.006356 0.990407 1.130134 1.327821 1.445914
Pattern_2 1.386026 1.551461 1.525061 1.439543 1.421228 1.505216
Pattern_2 1.318618 1.355081 1.208669 1.269019 1.222582 1.207368
Pattern_2 1.154517 1.189092 1.197032 1.214814 1.295679 1.292012
Pattern_2 1.332861 1.351102 1.309309 1.345808 1.383320 1.300206
Pattern_2 1.288412 1.336834 1.274156 1.113931 0.906531 0.919131
Pattern_2 0.800281 0.741769 0.666247 0.582353 0.570725 0.549764
Pattern_2 0.562492 0.563210 0.611701 0.646043 0.697239 0.968520
Pattern_2 0.986359 1.151624 1.173019 1.297674 1.266897 1.307631
Pattern_2 1.398009 1.614384 1.398418 1.435419 1.531874 1.412320
Pattern_2 1.403673 1.412146 1.461153 1.433662 1.267665 1.283668
Pattern_2 1.339314 1.119910 1.289839 1.292162 1.244638 1.254258
Pattern_2 1.302488 1.414045 1.388509 1.297573 1.384181 1.456491
Pattern_2 1.362921 1.277805 1.171942 1.123029 1.092512 1.018750
Pattern_2 0.885476 0.794293 0.683420 0.622616 0.499994 0.557386
Pattern_2 0.547416 0.597206 0.643461 0.707879 0.788869 0.871251
Pattern_2 0.963498 1.019637 1.235400 1.247813 1.355962 1.409732
Pattern_2 1.439763 1.659172 1.515723 1.548763 1.485650 1.389107
Pattern_2 1.393415 1.283548 1.178484 1.244083 1.219026 1.285907
Pattern_2 1.327969 1.244909 1.291318 1.190339 1.174755 1.276338
Pattern_2 1.415426 1.374356 1.394721 1.301928 1.390277 1.358844
Pattern_2 1.304556 1.338668 1.181684 1.122443 0.982740 1.000720
Pattern_2 0.888914 0.790798 0.628955 0.595318 0.561001 0.567964
Pattern_2 0.560942 0.567695 0.631783 0.797717 0.859235 1.003520
Pattern_2 1.095182 1.157508 1.357090 1.559450 1.669485 1.649541
Pattern_2 1.782046 1.743087 1.694770 1.606817 1.800117 1.497645
Pattern_2 1.564023 1.467307 1.361295 1.355879 1.454266 1.371896
Pattern_2 1.327396 1.262043 1.281824 1.472852 1.396608 1.247906
Pattern_2 1.483548 1.238025 1.311777 1.274839 1.310738 1.341142
Pattern_2 1.278390 1.203863 1.109471 1.080441 1.019168 1.041550
Pattern_2 0.918912 0.801624 0.784407 0.728026 0.701831 0.665874
Pattern_2 0.616740 0.603117 0.594458 0.609222 0.665308 0.825282
Pattern_2 0.759605 0.875142 1.000755 1.062169 1.171673 1.262354
Pattern_2 1.381873 1.468225 1.417485 1.498337 1.355602 1.312192
Pattern_2 1.382637 1.453185 1.415268 1.445291 1.375649 1.251967
Pattern_2 1.301961 1.465832 1.305972 1.349416 1.432640 1.341765
Pattern_2 1.330372 1.296926 1.341268 1.153813 1.273953 1.183336
Pattern_2 1.384490 1.231049 1.017531 0.985162 1.001151 0.915285
Pattern_2 0.820836 0.762678 0.626317 0.675496 0.672280 0.615601
Pattern_2 0.602689 0.575059 0.599058 0.603852 0.631650 0.618520
Pattern_2 0.610788 0.800011 0.752006 0.809593 0.992621 1.028429
Pattern_2 1.096112 1.130265 1.356352 1.339995 1.241346 1.482183
Pattern_2 1.381024 1.342534 1.280301 1.315439 1.179350 1.240629
Pattern_2 1.184722 1.273158 1.229525 1.223892 1.129527 1.218283
Pattern_2 1.302793 1.294597 1.266698 1.232674 1.340914 1.356393
Pattern_2 1.251767 1.101395 1.154173 1.100850 0.947391 0.914825
Pattern_2 0.828829 0.732453 0.591949 0.616855 0.563357 0.523317
Pattern_2 0.485379 0.532945 0.566052 0.696488 0.689732 0.837573
Pattern_2 1.000302 1.021118 1.170288 1.247836 1.393734 1.454036
Pattern_2 1.607739 1.650541 1.564495 1.800558 1.629483 1.553708
Pattern_2 1.443872 1.273626 1.406537 1.350192 1.289574 1.218457
Pattern_2 1.167635 1.183164 1.159790 1.141026 1.220865 1.239854
Pattern_2 1.289560 1.303156 1.335515 1.308377 1.485955 1.246686
Pattern_2 1.302173 1.331008 1.159432 1.190988 1.147612 0.981444
Pattern_2 0.887322 0.751893 0.636200 0.670055 0.639004 0.576754
Pattern_2 0.511635 0.589006 0.591709 0.673443 0.750470 0.881605
Pattern_2 0.959881 1.017246 1.113792 1.270502 1.382212 1.480743
Pattern_2 1.578923 1.490489 1.571935 1.438548 1.388345 1.596522
Pattern_2 1.437378 1.461540 1.214754 1.313594 1.282413 1.223108
Pattern_2 1.140138 1.229280 1.162075 1.178045 1.345326 1.326753
Pattern_2 1.232320 1.448636 1.398038 1.373418 1.501424 1.356798
Pattern_2 1.372009 1.248443 1.147821 1.153475 1.071136 0.973161
Pattern_2 0.899488 0.774088 0.641404 0.591585 0.491408 0.544633
Pattern_2 0.582955 0.571861 0.653623 0.723212 0.827567 0.892577
Pattern_2 0.979527 1.036596 1.246914 1.338646 1.397406 1.602911
Pattern_2 1.551300 1.581570 1.456458 1.521101 1.479676 1.523539
Pattern_2 1.612618 1.401155 1.233596 1.305051 1.227826 1.420458
Pattern_2 1.253117 1.290580 1.195680 1.306126 1.312805 1.365880
Pattern_2 1.344850 1.339932 1.314101 1.457239 1.459800 1.407432
Pattern_2 1.356613 1.315294 1.326571 1.129840 1.071627 0.965483
Pattern_2 0.883973 0.746889 0.657722 0.656200 0.584566 0.572090
Pattern_2 0.545513 0.577559 0.684394 0.800700 0.853147 0.876383
Pattern_2 1.009567 1.118192 1.138493 1.370100 1.251747 1.540337
Pattern_2 1.476211 1.611504 1.564579 1.322597 1.538508 1.333481
Pattern_2 1.468135 1.307087 1.301464 1.266275 1.347757 1.302867
Pattern_2 1.295785 1.331563 1.243518 1.189220 1.225634 1.399018
Pattern_2 1.299874 1.377803 1.438529 1.347179 1.378809 1.395854
Pattern_2 1.227115 1.346723 1.370037 1.226038 1.059321 0.934734
Pattern_2 0.971028 0.845212 0.777072 0.625578 0.571254 0.605402
Pattern_2 0.612122 0.581704 0.631113 0.756263 0.869929 0.922902
Pattern_2 1.190481 1.302081 1.470727 1.534365 1.664413 1.734872
Pattern_2 1.791504 1.822270 1.771922 1.582333 1.793828 1.585496
Pattern_2 1.531548 1.505273 1.477316 1.348738 1.401409 1.381874
Pattern_2 1.332997 1.410783 1.218155 1.342811 1.403134 1.464869
Pattern_2 1.227288 1.347414 1.359577 1.499536 1.403711 1.240021
Pattern_2 1.233281 1.183454 1.202038 1.157473 1.120642 1.098626
Pattern_2 0.884574 0.835410 0.750618 0.698550 0.758607 0.647117
Pattern_2 0.640568 0.572847 0.604375 0.700440 0.736286 0.764894
Pattern_2 0.935418 0.816407 1.064365 1.018897 1.069789 1.210471
Pattern_2 1.301861 1.323348 1.413156 1.532596 1.438571 1.461844
Pattern_2 1.515392 1.379659 1.347264 1.227508 1.343921 1.263662
Pattern_2 1.431858 1.284773 1.384014 1.359072 1.443133 1.270848
Pattern_2 1.310784 1.466891 1.193526 1.373478 1.225541 1.225078
Pattern_2 1.268671 1.251013 0.953520 0.926779 0.916435 0.875084
Pattern_2 0.855530

Pattern_3 0.884404 0.826896 0.708077 0.768962 0.696437 0.726044
Pattern_3 0.716794 0.675930 0.739010 0.662846 0.738621 0.713872
Pattern_3 0.804985 0.832306 0.847885 0.961309 1.094070 0.986318
Pattern_3 1.175610 1.142316 1.184492 1.306312 1.179394 1.276952
Pattern_3 1.302956 1.304823 1.306642 1.163864 1.182728 1.058601
Pattern_3 1.238630 1.142066 1.105156 1.157297 1.202917 1.230221
Pattern_3 1.222378 1.132307 1.141393 1.189772 1.132639 1.185541
Pattern_3 1.158740 1.170895 1.109068 1.021389 0.903387 0.964210
Pattern_3 0.806545 0.849287 0.687939 0.748106 0.672866 0.691166
Pattern_3 0.660288 0.680326 0.741755 0.801743 0.838561 0.900097
Pattern_3 0.872102 1.214914 1.044294 1.298060 1.277733 1.302906
Pattern_3 1.328471 1.475437 1.666892 1.541536 1.358833 1.380194
Pattern_3 1.376283 1.251485 1.305848 1.211977 1.161838 1.088531
Pattern_3 1.143605 1.226449 1.220672 1.098039 1.090865 1.194792
Pattern_3 1.234783 1.215516 1.201123 1.284254 1.263569 1.366897
Pattern_3 1.286094 1.219681 1.192710 1.081570 1.027244 0.986320
Pattern_3 0.937357 0.797371 0.783559 0.794526 0.680739 0.671011
Pattern_3 0.593480 0.665095 0.708400 0.784697 0.799823 0.839681
Pattern_3 0.974487 1.053334 1.069587 1.218371 1.360156 1.393697
Pattern_3 1.344828 1.407512 1.414117 1.474920 1.459445 1.482726
Pattern_3 1.382617 1.254105 1.250733 1.300909 1.184854 1.199952
Pattern_3 1.207393 1.100679 1.148777 1.224230 1.236944 1.207347
Pattern_3 1.299701 1.213561 1.343711 1.364306 1.241626 1.259446
Pattern_3 1.250856 1.186719 1.219341 1.112747 1.054421 0.942094
Pattern_3 0.951391 0.829271 0.846271 0.680765 0.712951 0.631074
Pattern_3 0.699464 0.686534 0.777220 0.733360 0.877498 1.060485
Pattern_3 1.050003 1.150254 1.266280 1.190479 1.209031 1.457335
Pattern_3 1.364811 1.388338 1.468275 1.376884 1.444383 1.485352
Pattern_3 1.369163 1.481083 1.349851 1.271885 1.144043 1.182783
Pattern_3 1.340924 1.241778 1.134117 1.238426 1.225082 1.193426
Pattern_3 1.281836 1.310576 1.204279 1.254420 1.293048 1.213325
Pattern_3 1.229988 1.242106 1.283985 1.068139 1.074189 0.908864
Pattern_3 0.938673 0.820553 0.800038 0.687986 0.714193 0.663746
Pattern_3 0.641586 0.663402 0.714270 0.861840 0.837560 0.908677
Pattern_3 0.950091 1.109911 1.230388 1.209867 1.373334 1.273351
Pattern_3 1.488114 1.327982 1.544674 1.458127 1.385083 1.421652
Pattern_3 1.287759 1.381249 1.280406 1.246689 1.246028 1.202659
Pattern_3 1.154510 1.296214 1.249267 1.208559 1.157866 1.221205
Pattern_3 1.202461 1.361540 1.173377 1.356880 1.165520 1.260137
Pattern_3 1.132116 1.164702 1.180038 1.052757 1.132249 1.100790
Pattern_3 0.915040 0.883207 0.808993 0.682974 0.747937 0.738296
Pattern_3 0.679313 0.712018 0.756866 0.828725 0.908270 1.067137
Pattern_3 1.018772 1.232870 1.368452 1.440684 1.467286 1.546962
Pattern_3 1.407631 1.636147 1.526515 1.559257 1.538264 1.382380
Pattern_3 1.433844 1.426285 1.379327 1.248330 1.260152 1.186717
Pattern_3 1.333983 1.334506 1.338345 1.290783 1.218595 1.271600
Pattern_3 1.246386 1.312121 1.207892 1.242868 1.271766 1.197896
Pattern_3 1.216116 1.175021 1.154408 1.078428 1.158867 0.945271
Pattern_3 0.940469 0.876376 0.894219 0.835260 0.814304 0.757187
Pattern_3 0.628662 0.637556 0.702920 0.769906 0.825407 0.802253
Pattern_3 0.907991 0.969451 0.980444 1.062879 1.148518 1.241400
Pattern_3 1.280790 1.313522 1.194323 1.344664 1.402391 1.289253
Pattern_3 1.411348 1.318502 1.339148 1.203577 1.311529 1.215854
Pattern_3 1.219932 1.265185 1.298437 1.215981 1.301850 1.288621
Pattern_3 1.323662 1.334942 1.117339 1.208241 1.123896 1.172424
Pattern_3 1.056921 1.089548 1.008342 1.012754 0.951357 0.906257
Pattern_3 0.863431 0.801242 0.822863 0.721730 0.735840 0.793731
Pattern_3 0.734708 0.721097 0.722645 0.663613 0.721958 0.782339
Pattern_3 0.797428 0.838788 0.893921 0.977331 0.901897 1.096990
Pattern_3 1.141886 1.247996 1.246360 1.247798 1.330736 1.336451
Pattern_3 1.256056 1.258626 1.227878 1.147016 1.224101 1.237167
Pattern_3 1.195930 1.133365 1.087532 1.132878 1.117066 1.182298
Pattern_3 1.169310 1.314235 1.148031 1.236740 1.217383 1.091493
Pattern_3 1.178193 1.146647 1.105456 1.049852 0.947919 0.793734
Pattern_3 0.891116 0.730088 0.701300 0.683016 0.690811 0.646361
Pattern_3 0.601841 0.708315 0.676176 0.783481 0.835239 0.934413
Pattern_3 0.963013 1.052106 1.113038 1.226631 1.335669 1.449224
Pattern_3 1.402817 1.439962 1.540873 1.597681 1.556922 1.470039
Pattern_3 1.455709 1.527738 1.175285 1.325788 1.205902 1.242599
Pattern_3 1.140640 1.072924 1.040595 1.041372 1.152407 1.150563
Pattern_3 1.213850 1.097433 1.216564 1.249597 1.349289 1.311931
Pattern_3 1.373880 1.258138 1.188266 1.113057 1.043081 0.976628
Pattern_3 0.938227 0.830738 0.819649 0.785752 0.729338 0.685403
Pattern_3 0.750665 0.718913 0.741344 0.828773 0.827301 0.851090
Pattern_3 0.938034 1.062912 1.104395 1.344311 1.246831 1.325123
Pattern_3 1.388349 1.521819 1.334021 1.410929 1.439329 1.467255
Pattern_3 1.370926 1.331244 1.377053 1.180455 1.163300 1.112318
Pattern_3 1.245658 1.188083 1.167125 1.201272 1.122700 1.268697
Pattern_3 1.262224 1.175575 1.429887 1.275524 1.315320 1.286758
Pattern_3 1.259156 1.165731 1.155173 1.124731 1.104430 0.956631
Pattern_3 0.926992 0.847291 0.784794 0.729415 0.757962 0.703137
Pattern_3 0.707493 0.666655 0.764276 0.861330 0.896946 0.849618
Pattern_3 1.000557 1.196587 1.168294 1.282886 1.407185 1.391702
Pattern_3 1.514734 1.376142 1.419499 1.466454 1.498472 1.479354
Pattern_3 1.455521 1.488215 1.300323 1.295610 1.254088 1.254740
Pattern_3 1.300021 1.245540 1.128542 1.207258 1.209804 1.334562
Pattern_3 1.244142 1.163572 1.320898 1.338936 1.260035 1.314041
Pattern_3 1.245039 1.286030 1.183081 1.114609 1.070231 1.038420
Pattern_3 0.879376 0.834954 0.805461 0.771053 0.702320 0.702551
Pattern_3 0.693869 0.703905 0.712665 0.819493 0.891694 1.061232
Pattern_3 1.051199 1.094656 1.234422 1.376866 1.386835 1.438865
Pattern_3 1.336077 1.408213 1.326432 1.439354 1.420854 1.445340
Pattern_3 1.417856 1.409829 1.270153 1.305001 1.268802 1.228714
Pattern_3 1.196177 1.219673 1.164888 1.196595 1.213180 1.306692
Pattern_3 1.282289 1.300832 1.226205 1.288886 1.260986 1.303312
Pattern_3 1.322371 1.249873 1.253762 1.117924 1.093016 1.010677
Pattern_3 0.911421 0.904203 0.818063 0.743656 0.738583 0.653289
Pattern_3 0.706962 0.731704 0.759136 0.867958 0.912641 1.063351
Pattern_3 1.178089 1.213292 1.351980 1.524740 1.440218 1.637859
Pattern_3 1.761852 1.677225 1.565801 1.698640 1.248108 1.447188
Pattern_3 1.364392 1.508305 1.281494 1.346581 1.320183 1.355081
Pattern_3 1.291727 1.366080 1.208902 1.200979 1.430169 1.266737
Pattern_3 1.331357 1.263183 1.350508 1.289380 1.383320 1.247240
Pattern_3 1.263138 1.217610 1.227516 1.049719 1.019052 1.140540
Pattern_3 0.921938 0.969651 0.877619 0.818965 0.795812 0.730433
Pattern_3 0.686134 0.728855 0.731614 0.733912 0.830057 0.896089
Pattern_3 0.959278 0.988046 1.154225 1.169833 1.104881 1.261410
Pattern_3 1.336739 1.376914 1.273654 1.391444 1.302414 1.512725
Pattern_3 1.447125 1.300766 1.310078 1.252741 1.203923 1.318880
Pattern_3 1.398841 1.287592 1.264948 1.367453 1.288000 1.234936
Pattern_3 1.273329 1.207458 1.219356 1.330805 1.258204 1.136364
Pattern_3 1.254626 1.152472 1.190186 1.028408 0.951156 0.882915
Pattern_3 0.895995

Pattern_4 0.790816 0.807833 0.758925 0.659395 0.589379 0.611802
Pattern_4 0.596063 0.514625 0.549771 0.561639 0.581197 0.618504
Pattern_4 0.716527 0.767123 0.827297 0.942358 0.900275 1.064836
Pattern_4 1.207766 1.172092 1.200764 1.185611 1.214220 1.337956
Pattern_4 1.347117 1.183323 1.272570 1.289250 1.139089 1.098987
Pattern_4 1.172853 1.144317 1.235296 1.230049 1.200158 1.184790
Pattern_4 1.142783 1.245067 1.174211 1.291940 1.280104 1.173635
Pattern_4 1.161574 1.160637 1.101831 1.044626 0.833025 0.866288
Pattern_4 0.807930 0.732193 0.622801 0.518896 0.569623 0.498970
Pattern_4 0.503564 0.564840 0.609974 0.672440 0.745915 0.792993
Pattern_4 0.870987 1.003844 1.171641 1.267261 1.329938 1.432020
Pattern_4 1.563556 1.470100 1.463735 1.522924 1.576754 1.516081
Pattern_4 1.488113 1.530692 1.242879 1.183400 1.257008 1.143294
Pattern_4 1.069179 1.009693 1.074039 1.009231 1.140584 1.188648
Pattern_4 1.273917 1.363705 1.356172 1.244769 1.315593 1.419754
Pattern_4 1.270534 1.236641 1.270368 1.179095 1.012469 0.859595
Pattern_4 0.851041 0.785827 0.617266 0.556820 0.532452 0.520668
Pattern_4 0.520467 0.569221 0.594535 0.723790 0.784454 0.864505
Pattern_4 0.912754 1.103338 1.183133 1.409101 1.280247 1.439474
Pattern_4 1.539169 1.407601 1.485941 1.456755 1.427878 1.454459
Pattern_4 1.427134 1.340080 1.367206 1.199917 1.148266 1.173337
Pattern_4 1.103418 1.089681 1.170862 1.017999 1.339011 1.242981
Pattern_4 1.466649 1.411361 1.311336 1.412250 1.288649 1.432381
Pattern_4 1.282087 1.296723 1.112985 1.077077 1.051561 0.913659
Pattern_4 0.773168 0.722499 0.580512 0.588538 0.519414 0.496204
Pattern_4 0.524767 0.541258 0.564270 0.752644 0.859643 0.851330
Pattern_4 1.024968 1.101717 1.166788 1.311103 1.279572 1.512583
Pattern_4 1.610060 1.413855 1.503687 1.378993 1.455610 1.537157
Pattern_4 1.402938 1.360834 1.462019 1.269339 1.285697 1.259510
Pattern_4 1.223358 1.249592 1.292510 1.177280 1.241530 1.337564
Pattern_4 1.270408 1.345986 1.301688 1.273245 1.258207 1.331480
Pattern_4 1.249565 1.403485 1.366611 1.033142 1.018377 0.912543
Pattern_4 0.821606 0.758340 0.665710 0.592517 0.511041 0.512400
Pattern_4 0.466476 0.523347 0.558859 0.737041 0.847638 0.945442
Pattern_4 0.958710 1.139802 1.246163 1.315052 1.452476 1.509650
Pattern_4 1.481391 1.577550 1.507719 1.403515 1.427106 1.431955
Pattern_4 1.312143 1.317637 1.347378 1.270682 1.118783 1.142362
Pattern_4 1.184228 1.242618 1.215482 1.245268 1.188294 1.242546
Pattern_4 1.302323 1.378247 1.317633 1.288619 1.299474 1.349160
Pattern_4 1.298873 1.368889 1.202984 1.153822 1.111794 0.847999
Pattern_4 0.909491 0.817756 0.678012 0.605833 0.556603 0.532418
Pattern_4 0.593088 0.640440 0.681157 0.757942 0.911629 1.025731
Pattern_4 1.170805 1.184103 1.300654 1.507841 1.753345 1.662355
Pattern_4 1.687994 1.713208 1.582252 1.703728 1.751436 1.608347
Pattern_4 1.518250 1.573361 1.390784 1.349113 1.250470 1.342601
Pattern_4 1.258118 1.294310 1.268808 1.330124 1.322857 1.359898
Pattern_4 1.309937 1.220350 1.318581 1.422212 1.272530 1.337580
Pattern_4 1.321898 1.095807 1.274181 1.165097 1.211648 0.957799
Pattern_4 0.879080 0.835152 0.791832 0.739060 0.609546 0.624245
Pattern_4 0.566082 0.553154 0.615111 0.622697 0.699633 0.750167
Pattern_4 0.855725 0.900640 0.912495 1.084867 1.164768 1.342001
Pattern_4 1.297764 1.384619 1.302479 1.461363 1.506195 1.333483
Pattern_4 1.412200 1.404449 1.352165 1.400554 1.222887 1.059798
Pattern_4 1.170513 1.234213 1.295384 1.275148 1.329127 1.388120
Pattern_4 1.195359 1.354202 1.374771 1.326210 1.260125 1.174507
Pattern_4 1.237873 1.044219 1.068270 0.959905 0.968496 0.797296
Pattern_4 0.842695 0.759193 0.711198 0.659040 0.643932 0.573594
Pattern_4 0.623640 0.598965 0.627084 0.610653 0.615790 0.661625
Pattern_4 0.711996 0.798297 0.867853 0.891561 0.988760 1.043063
Pattern_4 1.044540 1.180828 1.288334 1.257114 1.216316 1.289941
Pattern_4 1.289796 1.280301 1.203532 1.105523 1.355014 1.149885
Pattern_4 1.183344 1.117908 1.081634 1.013823 1.177300 1.041090
Pattern_4 1.233236 1.317951 1.347571 1.285307 1.256676 1.271098
Pattern_4 1.372006 1.157785 1.126917 1.016565 1.039443 0.840105
Pattern_4 0.808650 0.677497 0.605135 0.557862 0.578657 0.463293
Pattern_4 0.525804 0.547481 0.592360 0.619969 0.738598 0.896987
Pattern_4 0.940111 1.160300 1.256597 1.323187 1.483450 1.588724
Pattern_4 1.518480 1.715531 1.781192 1.511641 1.593446 1.340289
Pattern_4 1.553712 1.482127 1.290483 1.265699 1.159913 1.131356
Pattern_4 1.177473 0.986885 1.064637 1.149860 1.154995 1.192101
Pattern_4 1.249314 1.273805 1.314845 1.395111 1.385371 1.467624
Pattern_4 1.448220 1.334827 1.239163 1.168204 1.081803 1.062048
Pattern_4 0.846102 0.749996 0.653149 0.606043 0.548938 0.523225
Pattern_4 0.523188 0.584655 0.599397 0.724223 0.688026 0.794860
Pattern_4 0.994507 1.009852 1.236615 1.357524 1.273145 1.384699
Pattern_4 1.573573 1.524285 1.663039 1.554358 1.552480 1.363001
Pattern_4 1.535225 1.315743 1.279566 1.270092 1.249414 1.212683
Pattern_4 1.112947 1.135473 1.014774 1.226774 1.274436 1.183829
Pattern_4 1.330262 1.386375 1.431173 1.466521 1.408643 1.420725
Pattern_4 1.367237 1.313963 1.271934 1.106460 0.946203 0.947640
Pattern_4 0.844158 0.799554 0.661509 0.598461 0.570901 0.524837
Pattern_4 0.549725 0.596060 0.587525 0.719182 0.756454 0.964873
Pattern_4 1.062916 1.105092 1.178823 1.368720 1.225806 1.411059
Pattern_4 1.544127 1.552572 1.517821 1.314654 1.602504 1.495364
Pattern_4 1.314499 1.477871 1.193450 1.321983 1.263642 1.275458
Pattern_4 1.313164 1.300735 1.229126 1.140286 1.314315 1.202374
Pattern_4 1.337723 1.292444 1.479871 1.320358 1.314377 1.375988
Pattern_4 1.352980 1.317580 1.277297 1.100973 1.075019 1.001186
Pattern_4 0.854050 0.752176 0.685122 0.564970 0.530952 0.547490
Pattern_4 0.512171 0.574417 0.610387 0.672835 0.779191 0.887771
Pattern_4 0.926747 1.049045 1.349648 1.355123 1.424824 1.444589
Pattern_4 1.576731 1.593565 1.547779 1.546420 1.346018 1.434575
Pattern_4 1.428811 1.223092 1.196837 1.168072 1.086331 1.121408
Pattern_4 1.214811 1.250653 1.254216 1.213588 1.359417 1.298450
Pattern_4 1.290058 1.406481 1.330579 1.489473 1.340585 1.341646
Pattern_4 1.343000 1.265104 1.246000 1.093923 1.090703 1.001156
Pattern_4 0.938576 0.809065 0.734095 0.684467 0.624841 0.555426
Pattern_4 0.528218 0.630050 0.624521 0.785436 0.912316 1.016785
Pattern_4 1.180772 1.327704 1.422545 1.447209 1.509486 1.708681
Pattern_4 1.625519 1.692084 1.718882 1.639010 1.694408 1.522278
Pattern_4 1.522160 1.417846 1.398496 1.269003 1.296356 1.170219
Pattern_4 1.264605 1.241122 1.182099 1.144521 1.341003 1.294633
Pattern_4 1.330903 1.446167 1.381338 1.460774 1.408572 1.404155
Pattern_4 1.363504 1.257813 1.128285 1.236479 1.092591 1.024226
Pattern_4 0.883478 0.795155 0.804727 0.710751 0.641356 0.535009