; Filename: ../Network_Originals/Hanoi_CMH.inp
; WNTR: 0.4.0
; Created: 2022-11-16 12:23:38
[TITLE]

[JUNCTIONS]
;ID                      Elevation       Demand Pattern                 
 2                                 30          247.22 Pattern_2                  ;
 3                                 30          236.11 Pattern_3                  ;
 4                                 30           36.11 Pattern_4                  ;
 5                                 30          201.39 Pattern_5                  ;
 6                                 30          279.17 Pattern_6                  ;
 7                                 30             375 Pattern_7                  ;
 8                                 30          152.78 Pattern_8                  ;
 9                                 30          145.83 Pattern_9                  ;
 10                                30          145.83 Pattern_10                 ;
 11                                30          138.89 Pattern_11                 ;
 12                                30          155.56 Pattern_12                 ;
 13                                30          261.11 Pattern_13                 ;
 14                                30          170.83 Pattern_14                 ;
 15                                30           77.78 Pattern_15                 ;
 16                                30           86.11 Pattern_16                 ;
 17                                30          240.28 Pattern_17                 ;
 18                                30          373.61 Pattern_18                 ;
 19                                30           16.67 Pattern_19                 ;
 20                                30          354.17 Pattern_20                 ;
 21                                30          258.33 Pattern_21                 ;
 22                                30          134.72 Pattern_22                 ;
 23                                30          290.28 Pattern_23                 ;
 24                                30          227.78 Pattern_24                 ;
 25                                30           47.22 Pattern_25                 ;
 26                                30             250 Pattern_26                 ;
 27                                30          102.78 Pattern_27                 ;
 28                                30           80.56 Pattern_28                 ;
 29                                30             100 Pattern_29                 ;
 30                                30             100 Pattern_30                 ;
 31                                30           29.17 Pattern_31                 ;
 32                                30          223.61 Pattern_32                 ;

[RESERVOIRS]
;ID                                   Head                  Pattern
 1                                100                            ;

[TANKS]
;ID                              Elevation           Init Level            Min Level            Max Level             Diameter           Min Volume Volume Curve         Overflow            

[PIPES]
;ID                   Node1                Node2                              Length             Diameter            Roughness           Minor Loss               Status
 1                    1                    2                                100            1016             130               0                 Open   ;
 2                    2                    3                               1350            1016             130               0                 Open   ;
 3                    3                    4                                900            1016             130               0                 Open   ;
 4                    4                    5                               1150            1016             130               0                 Open   ;
 5                    5                    6                               1450            1016             130               0                 Open   ;
 6                    6                    7                                450            1016             130               0                 Open   ;
 7                    7                    8                                850            1016             130               0                 Open   ;
 8                    8                    9                                850            1016             130               0                 Open   ;
 9                    9                    10                               800            1016             130               0                 Open   ;
 10                   10                   11                               950             762             130               0                 Open   ;
 11                   11                   12                              1200             762             130               0                 Open   ;
 12                   12                   13                              3500           609.6             130               0                 Open   ;
 13                   10                   14                               800           406.4             130               0                 Open   ;
 14                   14                   15                               500           406.4             130               0                 Open   ;
 15                   15                   16                               550           304.8             130               0                 Open   ;
 16                   17                   16                              2730           406.4             130               0                 Open   ;
 17                   17                   18                              1750             508             130               0                 Open   ;
 18                   18                   19                               800           609.6             130               0                 Open   ;
 19                   19                   3                                400           609.6             130               0                 Open   ;
 20                   3                    20                              2200            1016             130               0                 Open   ;
 21                   20                   21                              1500             508             130               0                 Open   ;
 22                   21                   22                               500           304.8             130               0                 Open   ;
 23                   20                   23                              2650            1016             130               0                 Open   ;
 24                   23                   24                              1230             762             130               0                 Open   ;
 25                   24                   25                              1300             762             130               0                 Open   ;
 26                   26                   25                               850             508             130               0                 Open   ;
 27                   27                   26                               300           304.8             130               0                 Open   ;
 28                   16                   27                               750           304.8             130               0                 Open   ;
 29                   23                   28                              1500           406.4             130               0                 Open   ;
 30                   28                   29                              2000           406.4             130               0                 Open   ;
 31                   29                   30                              1600           304.8             130               0                 Open   ;
 32                   30                   31                               150           304.8             130               0                 Open   ;
 33                   32                   31                               860           406.4             130               0                 Open   ;
 34                   25                   32                               950             508             130               0                 Open   ;

[PUMPS]
;ID                   Node1                Node2                Properties          

[VALVES]
;ID                   Node1                Node2                            Diameter Type              Setting           Minor Loss

[TAGS]
;type      name       tag       

[DEMANDS]
;ID        Demand     Pattern   

[STATUS]
;ID        Setting   

[PATTERNS]
;ID        Multipliers

Pattern_2 0.759273 0.647740 0.608235 0.605676 0.598052 0.545990
Pattern_2 0.521885 0.496831 0.516087 0.551990 0.579072 0.664918
Pattern_2 0.704402 0.724598 0.762544 0.870169 0.985644 1.040359
Pattern_2 1.172548 1.297899 1.152602 1.324302 1.494870 1.380947
Pattern_2 1.385876 1.330710 1.133706 1.189139 1.250376 1.309933
Pattern_2 1.108598 1.243674 1.047780 1.192095 1.243490 1.283700
Pattern_2 1.228045 1.242182 1.291286 1.138803 1.320868 1.286258
Pattern_2 1.117740 1.176235 1.073897 1.007704 0.897811 0.808782
Pattern_2 0.733977 0.611841 0.560073 0.476147 0.450833 0.394956
Pattern_2 0.380403 0.429934 0.509677 0.656943 0.643174 0.812095
Pattern_2 0.984270 1.112970 1.277255 1.249077 1.576889 1.481638
Pattern_2 1.602594 1.736464 1.719806 1.676674 1.703658 1.747981
Pattern_2 1.449622 1.424401 1.360734 1.383086 1.221163 1.249829
Pattern_2 1.055586 1.149598 1.150756 1.108766 1.164098 1.278641
Pattern_2 1.216128 1.258213 1.341451 1.382754 1.342900 1.341879
Pattern_2 1.234083 1.357279 1.208036 1.055613 1.010854 0.837623
Pattern_2 0.773704 0.695627 0.635130 0.501068 0.445488 0.438384
Pattern_2 0.404344 0.450494 0.523476 0.609019 0.714173 0.786643
Pattern_2 0.944519 1.069452 1.221275 1.319282 1.419647 1.485982
Pattern_2 1.513676 1.570707 1.439504 1.643529 1.535094 1.585384
Pattern_2 1.505282 1.315897 1.338216 1.284853 1.246511 1.230070
Pattern_2 1.106828 1.139830 1.179984 1.187904 1.238944 1.376145
Pattern_2 1.386571 1.336719 1.464370 1.520779 1.432077 1.430321
Pattern_2 1.326709 1.337449 1.202396 1.081871 0.931349 0.874728
Pattern_2 0.741797 0.684135 0.596155 0.483777 0.434966 0.430013
Pattern_2 0.415544 0.477862 0.596814 0.626674 0.734243 0.820309
Pattern_2 1.046691 1.155451 1.284988 1.463436 1.592835 1.526360
Pattern_2 1.498155 1.653775 1.664629 1.548237 1.593228 1.480506
Pattern_2 1.538354 1.525864 1.341843 1.358420 1.244182 1.249482
Pattern_2 1.271857 1.141059 1.261319 1.286915 1.183441 1.365208
Pattern_2 1.331753 1.237860 1.308037 1.409099 1.311768 1.405096
Pattern_2 1.387752 1.360237 1.177663 1.015184 0.956780 0.925788
Pattern_2 0.753078 0.651902 0.572873 0.531369 0.436283 0.467435
Pattern_2 0.492022 0.473627 0.562928 0.637761 0.727211 0.923827
Pattern_2 1.063653 1.130806 1.303535 1.385410 1.479817 1.667181
Pattern_2 1.637430 1.625586 1.601470 1.631076 1.600627 1.595054
Pattern_2 1.470690 1.311581 1.261130 1.343914 1.423317 1.395994
Pattern_2 1.234457 1.334845 1.131435 1.280770 1.291763 1.197458
Pattern_2 1.304915 1.418633 1.364530 1.403089 1.440292 1.292075
Pattern_2 1.431803 1.158503 1.180863 1.134948 1.000178 0.965829
Pattern_2 0.773342 0.704809 0.605494 0.545210 0.482725 0.452957
Pattern_2 0.454529 0.499541 0.525854 0.676321 0.872499 1.023316
Pattern_2 1.119752 1.327851 1.379303 1.627082 1.543499 1.685040
Pattern_2 1.786370 1.920644 1.820659 1.757662 1.799673 1.622502
Pattern_2 1.686253 1.558128 1.617478 1.384499 1.396147 1.384876
Pattern_2 1.291901 1.397742 1.296848 1.322221 1.225633 1.424208
Pattern_2 1.170216 1.349917 1.546831 1.538586 1.363981 1.380709
Pattern_2 1.240469 1.277078 1.161320 1.108923 1.086918 0.886727
Pattern_2 0.878000 0.733829 0.677762 0.582656 0.511974 0.511337
Pattern_2 0.482718 0.500074 0.497691 0.582680 0.640373 0.691234
Pattern_2 0.830350 0.890319 1.010167 1.167037 1.204020 1.360432
Pattern_2 1.384466 1.437305 1.529506 1.528345 1.590650 1.542066
Pattern_2 1.487409 1.574664 1.419385 1.320256 1.293172 1.336215
Pattern_2 1.457014 1.414346 1.255717 1.259459 1.385533 1.394234
Pattern_2 1.398617 1.400635 1.284406 1.358558 1.212867 1.225339
Pattern_2 1.172035 0.979742 1.088726 0.974431 0.928528 0.839165
Pattern_2 0.712595 0.764780 0.650196 0.603552 0.611237 0.548306
Pattern_2 0.495405 0.506211 0.512530 0.506851 0.560223 0.563866
Pattern_2 0.645929 0.753831 0.812568 0.936943 1.046970 1.147570
Pattern_2 1.271724 1.326817 1.234416 1.303358 1.569202 1.396894
Pattern_2 1.319572 1.360131 1.294243 1.338652 1.220747 1.176260
Pattern_2 1.121918 1.214376 1.157634 1.162153 1.197563 1.169121
Pattern_2 1.199496 1.201227 1.285463 1.344279 1.192405 1.370993
Pattern_2 1.284093 1.164031 1.071215 1.002017 0.870643 0.845147
Pattern_2 0.701955 0.648090 0.564284 0.489671 0.414027 0.414012
Pattern_2 0.450987 0.466747 0.528185 0.557522 0.750178 0.828477
Pattern_2 0.986358 1.086566 1.235339 1.433886 1.505692 1.465720
Pattern_2 1.595331 1.661908 1.747195 1.640350 1.826308 1.647791
Pattern_2 1.629221 1.478443 1.602997 1.273664 1.285738 1.254777
Pattern_2 1.060281 1.170729 1.233017 1.161543 1.195231 1.268101
Pattern_2 1.063429 1.399131 1.388994 1.324751 1.436262 1.476507
Pattern_2 1.381651 1.248236 1.186446 1.134388 1.054222 0.919639
Pattern_2 0.787697 0.649494 0.631786 0.493946 0.487655 0.442802
Pattern_2 0.444999 0.493974 0.556165 0.551744 0.706755 0.936025
Pattern_2 0.893655 1.090874 1.319450 1.394524 1.378218 1.403871
Pattern_2 1.556541 1.658515 1.699536 1.693343 1.643212 1.558460
Pattern_2 1.473133 1.407794 1.386204 1.276767 1.202384 1.303369
Pattern_2 1.310190 1.253553 1.219625 1.231954 1.184266 1.293096
Pattern_2 1.355471 1.265092 1.373307 1.375036 1.424942 1.477530
Pattern_2 1.375807 1.309968 1.276431 1.041694 0.969777 0.783547
Pattern_2 0.795104 0.703589 0.571097 0.483194 0.434216 0.447565
Pattern_2 0.464353 0.524772 0.551943 0.634116 0.780699 0.903774
Pattern_2 1.060729 1.078956 1.288470 1.368462 1.434349 1.532686
Pattern_2 1.574843 1.597215 1.714290 1.529047 1.675251 1.526573
Pattern_2 1.438231 1.586873 1.416317 1.566769 1.282770 1.353338
Pattern_2 1.409795 1.319679 1.168015 1.327288 1.259530 1.283745
Pattern_2 1.344055 1.513478 1.342177 1.445229 1.382248 1.299558
Pattern_2 1.295164 1.315440 1.238606 1.144280 1.040318 0.958336
Pattern_2 0.790613 0.614581 0.608823 0.546276 0.481536 0.444008
Pattern_2 0.464667 0.494783 0.568439 0.746166 0.745370 0.956270
Pattern_2 1.053741 1.286043 1.275974 1.375144 1.433249 1.545844
Pattern_2 1.721682 1.549002 1.638401 1.546360 1.610917 1.502832
Pattern_2 1.428351 1.449043 1.338392 1.367771 1.273407 1.252213
Pattern_2 1.302320 1.275202 1.238059 1.235064 1.380990 1.328222
Pattern_2 1.342706 1.529404 1.310415 1.454619 1.369163 1.395336
Pattern_2 1.370049 1.337539 1.137865 1.165656 1.040870 0.949150
Pattern_2 0.748964 0.666862 0.589867 0.540560 0.473587 0.441316
Pattern_2 0.481130 0.529595 0.533118 0.722102 0.822100 0.998586
Pattern_2 1.171241 1.393511 1.567485 1.687275 1.730156 1.726120
Pattern_2 2.037436 1.826312 1.981475 1.887200 1.922782 1.772602
Pattern_2 1.576846 1.664459 1.660731 1.480197 1.349303 1.423073
Pattern_2 1.254490 1.179409 1.341829 1.422065 1.420230 1.416772
Pattern_2 1.325632 1.425461 1.479669 1.310314 1.252864 1.467082
Pattern_2 1.378740 1.207871 1.159729 1.071733 1.054383 0.897312
Pattern_2 0.814504 0.757397 0.701868 0.616795 0.552848 0.463445
Pattern_2 0.521776 0.514862 0.514151 0.577690 0.686037 0.680515
Pattern_2 0.807124 0.946256 1.112521 1.207385 1.254345 1.298269
Pattern_2 1.445040 1.482186 1.511069 1.534189 1.531795 1.465625
Pattern_2 1.441600 1.480895 1.335485 1.443445 1.304730 1.308209
Pattern_2 1.327755 1.319099 1.384584 1.276772 1.384188 1.434490
Pattern_2 1.368814 1.375068 1.329423 1.319868 1.276564 1.224372
Pattern_2 1.255695 1.107923 1.028062 1.013140 0.834811 0.828465
Pattern_2 0.760464

Pattern_3 0.740968 0.659102 0.644903 0.590230 0.481852 0.498643
Pattern_3 0.506297 0.535446 0.482245 0.489850 0.519147 0.655111
Pattern_3 0.604102 0.677617 0.831936 0.945151 1.033445 1.093086
Pattern_3 1.205571 1.270856 1.275536 1.274292 1.303342 1.402509
Pattern_3 1.318965 1.287280 1.213158 1.248397 1.130943 1.180031
Pattern_3 1.215555 1.083852 1.110363 1.169175 1.196565 1.201181
Pattern_3 1.146007 1.296698 1.306234 1.245696 1.265750 1.231056
Pattern_3 1.262963 1.197499 1.154603 0.962450 0.986730 0.892556
Pattern_3 0.739838 0.623612 0.543689 0.479303 0.479111 0.434881
Pattern_3 0.440246 0.474177 0.526773 0.667358 0.658079 0.817328
Pattern_3 0.925003 1.110213 1.196267 1.146010 1.530172 1.481558
Pattern_3 1.449555 1.574683 1.544529 1.677179 1.571152 1.606207
Pattern_3 1.610664 1.587924 1.338862 1.254336 1.184809 1.148297
Pattern_3 1.123680 1.032404 1.040622 1.091473 1.184136 1.134876
Pattern_3 1.270092 1.307623 1.291930 1.326427 1.305757 1.315831
Pattern_3 1.338153 1.314188 1.188349 1.191218 0.964209 0.897659
Pattern_3 0.785781 0.680928 0.595596 0.541947 0.471901 0.453548
Pattern_3 0.460335 0.491555 0.563360 0.566968 0.679538 0.759894
Pattern_3 0.882138 0.928985 1.063368 1.212182 1.353648 1.369307
Pattern_3 1.538393 1.475580 1.548286 1.680927 1.418909 1.454555
Pattern_3 1.431735 1.329837 1.426172 1.272149 1.239593 1.095113
Pattern_3 1.070803 1.218525 1.148463 1.205581 1.145688 1.237347
Pattern_3 1.256286 1.444454 1.370459 1.419384 1.405832 1.392407
Pattern_3 1.347535 1.294857 1.186981 1.191887 1.038304 0.910014
Pattern_3 0.857010 0.663033 0.586571 0.525226 0.418660 0.455055
Pattern_3 0.506053 0.545207 0.507534 0.633857 0.741891 0.801930
Pattern_3 0.963355 1.024008 1.278072 1.195804 1.414071 1.400753
Pattern_3 1.352976 1.528563 1.587391 1.435994 1.634528 1.536548
Pattern_3 1.585406 1.333005 1.472816 1.356363 1.340284 1.245449
Pattern_3 1.341636 1.152797 1.156761 1.182536 1.312932 1.196526
Pattern_3 1.369825 1.389259 1.301270 1.539589 1.397434 1.365610
Pattern_3 1.407387 1.324197 1.122468 1.145365 1.074954 0.983866
Pattern_3 0.734505 0.655313 0.573208 0.537533 0.431660 0.448426
Pattern_3 0.457909 0.463984 0.536826 0.625978 0.770283 0.870020
Pattern_3 0.954360 1.170015 1.188610 1.417195 1.371216 1.517535
Pattern_3 1.633468 1.469182 1.593336 1.481440 1.391012 1.524907
Pattern_3 1.391898 1.466829 1.343250 1.304811 1.259474 1.162143
Pattern_3 1.162714 1.215122 1.195146 1.147443 1.159185 1.293731
Pattern_3 1.358922 1.496795 1.390014 1.334920 1.416285 1.298149
Pattern_3 1.305084 1.284417 1.173098 1.195348 1.027567 0.922155
Pattern_3 0.784335 0.677913 0.595939 0.551463 0.482072 0.468643
Pattern_3 0.453399 0.527328 0.600928 0.742220 0.868521 1.004925
Pattern_3 1.143028 1.197891 1.361287 1.493166 1.682084 1.566692
Pattern_3 1.882577 1.848216 1.711615 1.720950 1.891078 1.586825
Pattern_3 1.509196 1.497117 1.488571 1.466403 1.317094 1.384447
Pattern_3 1.297197 1.329309 1.239578 1.448186 1.232491 1.393608
Pattern_3 1.341890 1.373408 1.317356 1.355597 1.388847 1.343067
Pattern_3 1.375877 1.290143 1.197082 1.125285 1.063883 0.960631
Pattern_3 0.934673 0.855058 0.697080 0.678031 0.545653 0.502211
Pattern_3 0.541603 0.500696 0.579186 0.540898 0.650461 0.672499
Pattern_3 0.829444 0.885814 1.029426 1.104155 1.256892 1.288229
Pattern_3 1.357011 1.414361 1.460953 1.419931 1.489973 1.465540
Pattern_3 1.462669 1.420504 1.398607 1.344099 1.260441 1.353752
Pattern_3 1.229551 1.431205 1.225051 1.413786 1.319691 1.385616
Pattern_3 1.251725 1.298809 1.318192 1.409216 1.221182 1.246595
Pattern_3 1.133892 0.988170 1.039019 1.038070 0.931895 0.799860
Pattern_3 0.773813 0.738845 0.686756 0.615555 0.578842 0.543808
Pattern_3 0.486179 0.527318 0.496966 0.525222 0.544656 0.626849
Pattern_3 0.624163 0.732763 0.812136 0.933425 0.985616 1.140340
Pattern_3 1.081282 1.251286 1.307800 1.365508 1.372645 1.440568
Pattern_3 1.395700 1.250851 1.388559 1.335264 1.247472 1.203299
Pattern_3 1.110930 1.126408 1.086533 1.196008 1.226454 1.291000
Pattern_3 1.203145 1.385577 1.292063 1.344354 1.296849 1.287157
Pattern_3 1.224015 1.147823 1.141179 0.983998 1.010489 0.773204
Pattern_3 0.701564 0.657132 0.577668 0.498691 0.465887 0.462070
Pattern_3 0.435423 0.510062 0.553152 0.599099 0.702213 0.795431
Pattern_3 1.015439 1.091785 1.353604 1.371280 1.546757 1.587904
Pattern_3 1.560753 1.714809 1.721361 1.655929 1.695191 1.662606
Pattern_3 1.578266 1.476444 1.303257 1.337358 1.188609 1.151743
Pattern_3 1.148348 1.058653 1.080022 1.104122 1.124425 1.238455
Pattern_3 1.192930 1.328133 1.395854 1.406101 1.450296 1.281622
Pattern_3 1.366798 1.325295 1.158906 1.118782 1.010777 0.934317
Pattern_3 0.842364 0.728744 0.651422 0.510018 0.504618 0.460218
Pattern_3 0.439172 0.512404 0.535357 0.688550 0.717671 0.803316
Pattern_3 0.887065 1.017599 1.245976 1.226757 1.321659 1.536188
Pattern_3 1.481014 1.551338 1.632910 1.661957 1.663158 1.616818
Pattern_3 1.466760 1.447480 1.258316 1.226092 1.186468 1.210410
Pattern_3 1.107757 1.166254 1.234789 1.066598 1.294529 1.339795
Pattern_3 1.362561 1.458805 1.372895 1.418900 1.536861 1.419847
Pattern_3 1.420677 1.349919 1.315623 1.060486 1.043665 0.910092
Pattern_3 0.818006 0.729591 0.660561 0.504362 0.509737 0.455624
Pattern_3 0.452891 0.532766 0.610821 0.585266 0.788555 0.899752
Pattern_3 0.983207 1.104815 1.205138 1.290943 1.457914 1.518303
Pattern_3 1.456394 1.499556 1.614028 1.576580 1.558350 1.598215
Pattern_3 1.595017 1.411167 1.395467 1.381480 1.448994 1.278915
Pattern_3 1.361559 1.208469 1.401302 1.190356 1.282710 1.426726
Pattern_3 1.339992 1.466185 1.250819 1.345336 1.300021 1.537136
Pattern_3 1.292839 1.130828 1.335286 1.143284 0.945006 0.876066
Pattern_3 0.785714 0.745910 0.599822 0.524031 0.492225 0.476398
Pattern_3 0.473133 0.485540 0.549764 0.668192 0.741140 0.815589
Pattern_3 1.047465 1.150062 1.311880 1.285560 1.424120 1.437482
Pattern_3 1.571044 1.791873 1.577191 1.526283 1.605380 1.331551
Pattern_3 1.473793 1.288538 1.428067 1.286980 1.266317 1.236202
Pattern_3 1.263656 1.169652 1.327236 1.202518 1.229980 1.336210
Pattern_3 1.364572 1.447967 1.413082 1.294736 1.333034 1.353847
Pattern_3 1.417374 1.218777 1.193594 1.205790 0.980554 0.847320
Pattern_3 0.847677 0.654000 0.615291 0.561291 0.498381 0.474508
Pattern_3 0.504987 0.554021 0.605509 0.654551 0.870640 0.992704
Pattern_3 1.175890 1.230150 1.454747 1.510262 1.659596 1.857977
Pattern_3 1.796824 1.823878 1.956754 1.789249 1.587686 1.580002
Pattern_3 1.545970 1.542873 1.480434 1.267885 1.370282 1.323507
Pattern_3 1.485080 1.297349 1.361744 1.346857 1.274816 1.377989
Pattern_3 1.325190 1.431167 1.473054 1.454380 1.375858 1.394262
Pattern_3 1.295708 1.307078 1.248272 1.147425 1.218161 1.002025
Pattern_3 0.898944 0.772008 0.765668 0.632790 0.554421 0.527603
Pattern_3 0.561517 0.531607 0.515061 0.580274 0.663715 0.684248
Pattern_3 0.843211 0.861429 1.041462 1.092902 1.144979 1.290105
Pattern_3 1.440042 1.400369 1.511749 1.541481 1.518811 1.606761
Pattern_3 1.506319 1.456378 1.287330 1.311430 1.460054 1.164593
Pattern_3 1.261040 1.279551 1.285904 1.449868 1.353120 1.383339
Pattern_3 1.342421 1.311122 1.409148 1.368567 1.235634 1.189973
Pattern_3 1.092621 1.182136 1.050540 0.917594 1.036067 0.837056
Pattern_3 0.819453

Pattern_4 0.697947 0.735520 0.658327 0.604272 0.565430 0.573761
Pattern_4 0.546032 0.525869 0.528824 0.565410 0.594290 0.618882
Pattern_4 0.606311 0.694723 0.811675 0.900507 1.059921 1.099818
Pattern_4 1.106920 1.196308 1.301367 1.317639 1.273436 1.311403
Pattern_4 1.423388 1.351877 1.265339 1.372932 1.342633 1.210010
Pattern_4 1.217184 1.234607 1.138454 1.169777 1.190713 1.297730
Pattern_4 1.209598 1.293104 1.173780 1.269281 1.395177 1.200652
Pattern_4 1.251761 1.108194 1.043302 0.996285 0.901848 0.779716
Pattern_4 0.748734 0.655392 0.635744 0.538663 0.552659 0.458027
Pattern_4 0.459137 0.506016 0.580196 0.571608 0.726993 0.817982
Pattern_4 0.979904 1.092471 1.231143 1.298051 1.340440 1.631321
Pattern_4 1.591331 1.584821 1.795978 1.634126 1.653263 1.581772
Pattern_4 1.544024 1.514619 1.514310 1.446829 1.263069 1.205076
Pattern_4 1.136522 1.138742 1.160995 1.038876 1.232524 1.371390
Pattern_4 1.277548 1.284379 1.405283 1.254818 1.402951 1.315610
Pattern_4 1.257076 1.291912 1.174107 1.144249 1.004441 0.850394
Pattern_4 0.782192 0.702749 0.618919 0.554169 0.506170 0.522299
Pattern_4 0.523439 0.575534 0.590095 0.595993 0.725973 0.857465
Pattern_4 0.835026 1.011614 1.169837 1.330080 1.306506 1.549452
Pattern_4 1.541191 1.529137 1.424626 1.600317 1.458343 1.641626
Pattern_4 1.441891 1.282718 1.236250 1.326845 1.333638 1.279130
Pattern_4 1.037299 1.155222 1.082389 1.157020 1.245369 1.241563
Pattern_4 1.189024 1.328976 1.411210 1.423605 1.307734 1.404842
Pattern_4 1.317618 1.249947 1.148958 1.105110 0.941822 0.934054
Pattern_4 0.802207 0.738623 0.615828 0.591758 0.521792 0.486688
Pattern_4 0.466808 0.583650 0.593947 0.695818 0.764258 0.938550
Pattern_4 1.038745 1.148417 1.194710 1.276021 1.380375 1.469684
Pattern_4 1.409805 1.541244 1.621250 1.494157 1.456197 1.599831
Pattern_4 1.532924 1.392900 1.363565 1.403816 1.467567 1.411185
Pattern_4 1.301999 1.201054 1.217255 1.176656 1.202074 1.288198
Pattern_4 1.425391 1.345849 1.170951 1.378044 1.499806 1.306193
Pattern_4 1.349737 1.144538 1.103300 1.166729 0.995033 0.847743
Pattern_4 0.799276 0.713560 0.556890 0.499714 0.528705 0.477547
Pattern_4 0.506504 0.574517 0.542239 0.712065 0.815568 0.883757
Pattern_4 0.943358 1.139657 1.265758 1.269675 1.299879 1.544756
Pattern_4 1.727729 1.466510 1.502546 1.529223 1.444342 1.449794
Pattern_4 1.462049 1.519224 1.291090 1.310748 1.290034 1.240258
Pattern_4 1.233434 1.213550 1.306904 1.151293 1.318204 1.308706
Pattern_4 1.285229 1.387103 1.384000 1.306736 1.417308 1.200750
Pattern_4 1.201933 1.357158 1.130449 1.117999 0.993520 0.979895
Pattern_4 0.800326 0.739162 0.640234 0.637385 0.491308 0.537454
Pattern_4 0.540666 0.568668 0.590816 0.724559 0.925084 0.868792
Pattern_4 1.117327 1.232730 1.433212 1.374277 1.543644 1.602048
Pattern_4 1.801252 1.619987 1.773795 1.727447 1.782898 1.679431
Pattern_4 1.564470 1.580269 1.537350 1.499692 1.331531 1.376912
Pattern_4 1.349764 1.311241 1.285583 1.376099 1.228333 1.307459
Pattern_4 1.304921 1.382619 1.360382 1.207342 1.406817 1.227834
Pattern_4 1.137558 1.253071 1.124921 0.963839 1.012057 1.031043
Pattern_4 0.843050 0.777338 0.689163 0.577923 0.583026 0.608303
Pattern_4 0.569711 0.545730 0.572374 0.626650 0.635952 0.627557
Pattern_4 0.811805 0.875292 0.974779 1.047560 1.293415 1.229398
Pattern_4 1.412223 1.393935 1.540897 1.610377 1.504056 1.616997
Pattern_4 1.532106 1.593829 1.464631 1.444698 1.444417 1.354433
Pattern_4 1.310357 1.342715 1.443921 1.389954 1.351852 1.230788
Pattern_4 1.352675 1.223303 1.361442 1.334466 1.283567 1.264621
Pattern_4 1.157884 1.105373 0.883818 0.967815 0.808378 0.851644
Pattern_4 0.743168 0.750592 0.720778 0.648699 0.636624 0.614749
Pattern_4 0.600591 0.545675 0.601588 0.587814 0.578832 0.634477
Pattern_4 0.719619 0.768704 0.804404 0.882448 0.955778 1.086234
Pattern_4 1.126936 1.248005 1.200363 1.414269 1.406703 1.379419
Pattern_4 1.342880 1.343495 1.314936 1.307722 1.375476 1.184798
Pattern_4 1.107221 1.238663 1.224430 1.191842 1.294464 1.178035
Pattern_4 1.287323 1.258553 1.325981 1.311921 1.298776 1.131836
Pattern_4 1.254390 1.135474 0.976991 0.884230 0.941392 0.814181
Pattern_4 0.698882 0.651481 0.598617 0.545968 0.507265 0.498804
Pattern_4 0.504257 0.478971 0.560989 0.630516 0.700101 0.859632
Pattern_4 1.003869 1.164047 1.264961 1.338931 1.562368 1.536765
Pattern_4 1.533797 1.610775 1.867960 1.810346 1.549878 1.711602
Pattern_4 1.685342 1.550076 1.376883 1.312344 1.234535 1.312008
Pattern_4 1.334681 1.176419 1.184539 1.151541 1.214349 1.227930
Pattern_4 1.227941 1.371632 1.416794 1.260878 1.295167 1.283477
Pattern_4 1.263950 1.226124 1.180245 1.274452 1.104238 0.851870
Pattern_4 0.842270 0.699775 0.674538 0.549222 0.538220 0.491270
Pattern_4 0.547969 0.585614 0.592698 0.709710 0.769444 0.850424
Pattern_4 0.895960 1.117752 1.225937 1.339779 1.404880 1.516116
Pattern_4 1.516746 1.604664 1.538168 1.682358 1.583336 1.539014
Pattern_4 1.463843 1.362813 1.337110 1.420161 1.205037 1.372462
Pattern_4 1.205290 1.324161 1.271403 1.320649 1.181671 1.247143
Pattern_4 1.439853 1.349096 1.395300 1.491865 1.420854 1.358921
Pattern_4 1.290632 1.182210 1.239622 1.071969 0.993154 0.901948
Pattern_4 0.782532 0.685787 0.617631 0.555211 0.519058 0.508783
Pattern_4 0.543879 0.547379 0.648619 0.665982 0.880481 0.951458
Pattern_4 0.988388 1.123495 1.247999 1.269950 1.473379 1.551324
Pattern_4 1.472322 1.490586 1.562124 1.613370 1.562802 1.648113
Pattern_4 1.565357 1.532051 1.464317 1.288082 1.392357 1.412198
Pattern_4 1.310585 1.206764 1.319501 1.195597 1.258434 1.196242
Pattern_4 1.265110 1.356419 1.326221 1.303595 1.447711 1.251340
Pattern_4 1.227148 1.304486 1.227729 1.158673 0.934597 0.862409
Pattern_4 0.792126 0.716832 0.625210 0.565399 0.523634 0.507485
Pattern_4 0.510227 0.527846 0.607298 0.673065 0.767166 0.885678
Pattern_4 1.004718 1.237317 1.311469 1.315509 1.462670 1.508623
Pattern_4 1.528443 1.524678 1.493947 1.669797 1.534408 1.501989
Pattern_4 1.379318 1.320868 1.467992 1.468891 1.325866 1.290128
Pattern_4 1.325060 1.324214 1.287187 1.107796 1.206317 1.291106
Pattern_4 1.334265 1.404383 1.393523 1.368124 1.399866 1.503796
Pattern_4 1.269255 1.154022 1.151518 1.042885 1.023292 0.929947
Pattern_4 0.894519 0.723706 0.710869 0.559755 0.537549 0.507309
Pattern_4 0.570930 0.579919 0.575309 0.751725 0.828454 1.010205
Pattern_4 1.146119 1.276440 1.351100 1.524983 1.675892 1.851264
Pattern_4 1.808830 1.859532 1.831570 1.807727 1.861374 1.757278
Pattern_4 1.486078 1.610666 1.613830 1.459720 1.430975 1.373880
Pattern_4 1.337217 1.407598 1.317623 1.244492 1.360752 1.352204
Pattern_4 1.514876 1.433125 1.302054 1.232588 1.326189 1.249827
Pattern_4 1.206714 1.228577 1.176504 1.165867 0.962010 0.872549
Pattern_4 0.896705 0.782019 0.742751 0.651343 0.671047 0.564477