; Filename: ../Network_Originals/Hanoi_CMH.inp
; WNTR: 0.4.0
; Created: 2022-11-16 12:31:36
[TITLE]

[JUNCTIONS]
;ID                      Elevation       Demand Pattern                 
 2                                 30          247.22 Pattern_2                  ;
 3                                 30          236.11 Pattern_3                  ;
 4                                 30           36.11 Pattern_4                  ;
 5                                 30          201.39 Pattern_5                  ;
 6                                 30          279.17 Pattern_6                  ;
 7                                 30             375 Pattern_7                  ;
 8                                 30          152.78 Pattern_8                  ;
 9                                 30          145.83 Pattern_9                  ;
 10                                30          145.83 Pattern_10                 ;
 11                                30          138.89 Pattern_11                 ;
 12                                30          155.56 Pattern_12                 ;
 13                                30          261.11 Pattern_13                 ;
 14                                30          170.83 Pattern_14                 ;
 15                                30           77.78 Pattern_15                 ;
 16                                30           86.11 Pattern_16                 ;
 17                                30          240.28 Pattern_17                 ;
 18                                30          373.61 Pattern_18                 ;
 19                                30           16.67 Pattern_19                 ;
 20                                30          354.17 Pattern_20                 ;
 21                                30          258.33 Pattern_21                 ;
 22                                30          134.72 Pattern_22                 ;
 23                                30          290.28 Pattern_23                 ;
 24                                30          227.78 Pattern_24                 ;
 25                                30           47.22 Pattern_25                 ;
 26                                30             250 Pattern_26                 ;
 27                                30          102.78 Pattern_27                 ;
 28                                30           80.56 Pattern_28                 ;
 29                                30             100 Pattern_29                 ;
 30                                30             100 Pattern_30                 ;
 31                                30           29.17 Pattern_31                 ;
 32                                30          223.61 Pattern_32                 ;

[RESERVOIRS]
;ID                                   Head                  Pattern
 1                                100                            ;

[TANKS]
;ID                              Elevation           Init Level            Min Level            Max Level             Diameter           Min Volume Volume Curve         Overflow            

[PIPES]
;ID                   Node1                Node2                              Length             Diameter            Roughness           Minor Loss               Status
 1                    1                    2                                100            1016             130               0                 Open   ;
 2                    2                    3                               1350            1016             130               0                 Open   ;
 3                    3                    4                                900            1016             130               0                 Open   ;
 4                    4                    5                               1150            1016             130               0                 Open   ;
 5                    5                    6                               1450            1016             130               0                 Open   ;
 6                    6                    7                                450            1016             130               0                 Open   ;
 7                    7                    8                                850            1016             130               0                 Open   ;
 8                    8                    9                                850            1016             130               0                 Open   ;
 9                    9                    10                               800            1016             130               0                 Open   ;
 10                   10                   11                               950             762             130               0                 Open   ;
 11                   11                   12                              1200             762             130               0                 Open   ;
 12                   12                   13                              3500           609.6             130               0                 Open   ;
 13                   10                   14                               800           406.4             130               0                 Open   ;
 14                   14                   15                               500           406.4             130               0                 Open   ;
 15                   15                   16                               550           304.8             130               0                 Open   ;
 16                   17                   16                              2730           406.4             130               0                 Open   ;
 17                   17                   18                              1750             508             130               0                 Open   ;
 18                   18                   19                               800           609.6             130               0                 Open   ;
 19                   19                   3                                400           609.6             130               0                 Open   ;
 20                   3                    20                              2200            1016             130               0                 Open   ;
 21                   20                   21                              1500             508             130               0                 Open   ;
 22                   21                   22                               500           304.8             130               0                 Open   ;
 23                   20                   23                              2650            1016             130               0                 Open   ;
 24                   23                   24                              1230             762             130               0                 Open   ;
 25                   24                   25                              1300             762             130               0                 Open   ;
 26                   26                   25                               850             508             130               0                 Open   ;
 27                   27                   26                               300           304.8             130               0                 Open   ;
 28                   16                   27                               750           304.8             130               0                 Open   ;
 29                   23                   28                              1500           406.4             130               0                 Open   ;
 30                   28                   29                              2000           406.4             130               0                 Open   ;
 31                   29                   30                              1600           304.8             130               0                 Open   ;
 32                   30                   31                               150           304.8             130               0                 Open   ;
 33                   32                   31                               860           406.4             130               0                 Open   ;
 34                   25                   32                               950             508             130               0                 Open   ;

[PUMPS]
;ID                   Node1                Node2                Properties          

[VALVES]
;ID                   Node1                Node2                            Diameter Type              Setting           Minor Loss

[TAGS]
;type      name       tag       

[DEMANDS]
;ID        Demand     Pattern   

[STATUS]
;ID        Setting   

[PATTERNS]
;ID        Multipliers

Pattern_2 0.811656 0.804431 0.705528 0.720793 0.666408 0.633530
Pattern_2 0.642126 0.607214 0.588048 0.622901 0.661376 0.664280
Pattern_2 0.718993 0.801483 0.832869 0.890324 0.919218 1.058020
Pattern_2 1.301533 1.160869 1.334394 1.450571 1.356278 1.261810
Pattern_2 1.382201 1.268679 1.351444 1.256779 1.235673 1.273523
Pattern_2 1.190011 1.165560 1.111769 1.162690 1.155815 1.123201
Pattern_2 1.146028 1.334988 1.208274 1.314608 1.232296 1.196485
Pattern_2 1.333892 1.090944 1.021928 0.965532 0.998638 0.889674
Pattern_2 0.761397 0.646873 0.652790 0.598283 0.538163 0.490352
Pattern_2 0.503574 0.558421 0.647249 0.674666 0.721241 0.941770
Pattern_2 0.912998 1.055489 1.122191 1.351727 1.384723 1.540876
Pattern_2 1.465007 1.622744 1.488291 1.457297 1.568773 1.452140
Pattern_2 1.534149 1.533158 1.317845 1.257834 1.301540 1.112535
Pattern_2 1.042383 1.114368 1.077063 1.134296 1.167173 1.142317
Pattern_2 1.201848 1.297961 1.353470 1.285375 1.267028 1.322365
Pattern_2 1.332202 1.234404 1.136393 1.020514 1.064949 0.868947
Pattern_2 0.845472 0.745188 0.661299 0.663708 0.525936 0.526995
Pattern_2 0.535181 0.611158 0.637277 0.666879 0.848843 0.910189
Pattern_2 0.967136 1.037132 1.209624 1.193655 1.308930 1.421552
Pattern_2 1.515121 1.612465 1.574102 1.516904 1.554114 1.451143
Pattern_2 1.560321 1.360800 1.328158 1.370855 1.224800 1.157105
Pattern_2 1.200672 1.074464 1.085266 1.175531 1.182879 1.279863
Pattern_2 1.329366 1.347606 1.343560 1.260391 1.426679 1.383287
Pattern_2 1.249889 1.249887 1.187508 1.184529 0.980263 0.934925
Pattern_2 0.826221 0.752979 0.730039 0.614855 0.554373 0.515385
Pattern_2 0.538378 0.569580 0.674065 0.734946 0.812540 0.934932
Pattern_2 1.043353 1.112886 1.152224 1.367683 1.389555 1.468011
Pattern_2 1.457673 1.548579 1.494074 1.462240 1.593746 1.478483
Pattern_2 1.429766 1.417265 1.451110 1.447558 1.177129 1.277054
Pattern_2 1.272062 1.078135 1.309253 1.236793 1.261890 1.236756
Pattern_2 1.175864 1.284790 1.300948 1.231323 1.340730 1.325332
Pattern_2 1.251373 1.149299 1.290082 1.189828 0.958758 0.930715
Pattern_2 0.864097 0.710597 0.685251 0.532837 0.552432 0.549002
Pattern_2 0.523483 0.567781 0.671033 0.666519 0.763521 0.892046
Pattern_2 1.021209 1.168760 1.212809 1.325045 1.446822 1.461491
Pattern_2 1.346259 1.552153 1.620425 1.613496 1.501535 1.405221
Pattern_2 1.303310 1.226130 1.285110 1.132497 1.175892 1.319548
Pattern_2 1.191299 1.316159 1.159975 1.274548 1.200612 1.213582
Pattern_2 1.252498 1.344792 1.296790 1.241170 1.348382 1.286828
Pattern_2 1.328912 1.351701 1.143162 1.132308 1.089441 1.035214
Pattern_2 0.828118 0.780549 0.685839 0.653205 0.618252 0.643058
Pattern_2 0.609867 0.609966 0.701855 0.743385 0.893802 1.061792
Pattern_2 1.131435 1.308173 1.357966 1.649604 1.548742 1.742527
Pattern_2 1.735404 1.696686 1.687493 1.824356 1.600617 1.513412
Pattern_2 1.496186 1.523081 1.473532 1.474095 1.328612 1.318142
Pattern_2 1.232636 1.278422 1.192877 1.191362 1.370105 1.396024
Pattern_2 1.157019 1.272482 1.268772 1.329494 1.404060 1.342941
Pattern_2 1.289780 1.283258 1.165909 1.096744 1.101061 0.857294
Pattern_2 0.931957 0.819741 0.758971 0.683295 0.706159 0.639015
Pattern_2 0.610135 0.591080 0.559200 0.664057 0.616122 0.777576
Pattern_2 0.862731 0.937578 1.088403 1.153483 1.174752 1.291023
Pattern_2 1.437214 1.439810 1.426711 1.583696 1.423527 1.510471
Pattern_2 1.461895 1.363669 1.428925 1.391354 1.371912 1.283666
Pattern_2 1.333830 1.325506 1.293091 1.279120 1.301974 1.284261
Pattern_2 1.285764 1.266062 1.225760 1.262413 1.344005 1.141303
Pattern_2 1.063691 1.057387 1.157322 0.955560 1.064125 0.910314
Pattern_2 0.831280 0.831433 0.656768 0.725499 0.668381 0.586874
Pattern_2 0.572923 0.585289 0.655359 0.600429 0.630806 0.644870
Pattern_2 0.758841 0.813991 0.871443 0.969347 1.046257 1.109032
Pattern_2 1.301040 1.063081 1.303487 1.361430 1.216483 1.345945
Pattern_2 1.387282 1.334064 1.330506 1.341301 1.223258 1.224938
Pattern_2 1.156343 1.115311 1.205957 1.164404 1.178074 1.167114
Pattern_2 1.243528 1.146744 1.259499 1.273054 1.400979 1.243907
Pattern_2 1.221832 1.154217 1.168219 0.998133 0.944240 0.877301
Pattern_2 0.777166 0.762153 0.645825 0.643192 0.543693 0.554087
Pattern_2 0.552375 0.547412 0.646893 0.695844 0.827986 0.907287
Pattern_2 0.965916 1.175026 1.234402 1.139568 1.442911 1.624176
Pattern_2 1.571447 1.559830 1.650283 1.577986 1.633984 1.605999
Pattern_2 1.452193 1.496918 1.304759 1.401982 1.203180 1.262965
Pattern_2 1.206141 1.137837 1.073094 1.141661 1.124576 1.263204
Pattern_2 1.161122 1.172685 1.177620 1.352795 1.208642 1.296703
Pattern_2 1.426788 1.222118 1.196610 1.184337 1.098542 0.993706
Pattern_2 0.791834 0.772024 0.604042 0.695511 0.571812 0.519237
Pattern_2 0.546236 0.604058 0.640098 0.748146 0.754971 0.874328
Pattern_2 1.016665 1.041805 1.218507 1.335156 1.342547 1.487842
Pattern_2 1.432861 1.647346 1.607665 1.608958 1.481383 1.520521
Pattern_2 1.438116 1.374547 1.313598 1.233353 1.221892 1.157066
Pattern_2 1.146937 1.029398 1.176586 1.144483 1.185936 1.278433
Pattern_2 1.285574 1.228677 1.385246 1.508902 1.405320 1.442870
Pattern_2 1.374896 1.431786 1.171879 1.174583 1.102325 0.958719
Pattern_2 0.841602 0.746598 0.620391 0.608452 0.537077 0.549918
Pattern_2 0.596480 0.586174 0.620322 0.789249 0.838850 0.935628
Pattern_2 1.044153 1.205772 1.173928 1.296312 1.379318 1.529403
Pattern_2 1.549919 1.585217 1.508263 1.516566 1.363702 1.444277
Pattern_2 1.276152 1.383824 1.350192 1.376358 1.273217 1.286582
Pattern_2 1.243838 1.211870 1.224402 1.358196 1.150709 1.231360
Pattern_2 1.372483 1.437997 1.350365 1.380336 1.406636 1.333823
Pattern_2 1.430894 1.173340 1.239198 1.097426 1.002486 0.905521
Pattern_2 0.914517 0.732494 0.708929 0.613679 0.614840 0.564759
Pattern_2 0.602138 0.576845 0.635705 0.660038 0.815059 0.854475
Pattern_2 1.010871 1.159785 1.276655 1.307182 1.477193 1.376428
Pattern_2 1.553887 1.398964 1.551476 1.511504 1.521465 1.560143
Pattern_2 1.267219 1.415932 1.414564 1.202024 1.199792 1.191634
Pattern_2 1.319502 1.179943 1.181248 1.191274 1.176757 1.250517
Pattern_2 1.327454 1.414274 1.298657 1.312434 1.253817 1.334898
Pattern_2 1.299408 1.343137 1.223788 1.233163 1.077163 0.860873
Pattern_2 0.828638 0.741235 0.728007 0.693873 0.605298 0.564011
Pattern_2 0.582586 0.617171 0.704480 0.743368 0.885729 0.980359
Pattern_2 1.213781 1.317815 1.571306 1.630591 1.547018 1.517263
Pattern_2 1.733762 1.750640 1.578770 1.683603 1.768942 1.599252
Pattern_2 1.630790 1.430787 1.469595 1.336880 1.370485 1.294413
Pattern_2 1.440672 1.273821 1.346308 1.249024 1.406716 1.293985
Pattern_2 1.253265 1.389424 1.305645 1.264787 1.377360 1.327967
Pattern_2 1.315103 1.129032 1.269049 1.144678 0.918128 0.958134
Pattern_2 0.928106 0.895825 0.745420 0.733755 0.710587 0.621954
Pattern_2 0.623625 0.598330 0.668814 0.695192 0.616471 0.816213
Pattern_2 0.870181 1.006049 1.003291 1.212212 1.355824 1.372920
Pattern_2 1.405393 1.523500 1.459758 1.561165 1.456539 1.458957
Pattern_2 1.415225 1.290247 1.411913 1.428897 1.327185 1.261617
Pattern_2 1.267602 1.324554 1.310394 1.317508 1.362802 1.275136
Pattern_2 1.369783 1.393997 1.298611 1.278527 1.294315 1.092887
Pattern_2 1.139108 1.121155 1.121951 0.971283 0.922773 0.915946
Pattern_2 0.854043

Pattern_3 0.857214 0.707086 0.709299 0.656094 0.596274 0.576214
Pattern_3 0.556659 0.530421 0.514671 0.520439 0.582542 0.583389
Pattern_3 0.709291 0.713056 0.771090 0.930694 0.912994 1.086575
Pattern_3 1.098391 1.194797 1.276463 1.304727 1.090207 1.406430
Pattern_3 1.338278 1.273226 1.149236 1.355564 1.218215 1.145993
Pattern_3 1.184574 1.196445 1.077886 1.143758 1.201534 1.199795
Pattern_3 1.176826 1.160657 1.310472 1.345036 1.163331 1.286471
Pattern_3 1.261470 1.229925 1.234044 0.915795 0.994063 0.936148
Pattern_3 0.725441 0.639687 0.612317 0.560633 0.455247 0.455514
Pattern_3 0.422219 0.467747 0.532052 0.623910 0.685563 0.898579
Pattern_3 0.919454 1.063314 1.226114 1.276270 1.302830 1.445521
Pattern_3 1.488544 1.581753 1.599608 1.549813 1.774174 1.516466
Pattern_3 1.616928 1.381786 1.361425 1.283930 1.254127 1.191330
Pattern_3 1.080142 1.034349 1.146819 1.115218 1.165386 1.088792
Pattern_3 1.234933 1.316930 1.286543 1.389742 1.336487 1.328793
Pattern_3 1.317118 1.337285 1.135640 1.131334 1.063966 0.958774
Pattern_3 0.760496 0.712195 0.653159 0.550367 0.473750 0.474046
Pattern_3 0.486873 0.506515 0.525701 0.655803 0.711908 0.821271
Pattern_3 0.899965 1.016629 1.016034 1.183362 1.252819 1.311221
Pattern_3 1.415982 1.462149 1.605056 1.448548 1.425704 1.590182
Pattern_3 1.427347 1.384227 1.293415 1.292978 1.248373 1.110965
Pattern_3 1.174143 1.235181 1.051541 1.129596 1.170945 1.211400
Pattern_3 1.328164 1.425009 1.377471 1.433035 1.381716 1.231075
Pattern_3 1.233266 1.397624 1.170865 1.141357 1.043618 0.899401
Pattern_3 0.793106 0.767941 0.567523 0.528558 0.486112 0.498827
Pattern_3 0.479918 0.517364 0.569902 0.615666 0.756822 0.915475
Pattern_3 0.995174 1.066499 1.261725 1.261270 1.330249 1.399541
Pattern_3 1.556631 1.470793 1.428842 1.446921 1.607183 1.299389
Pattern_3 1.476015 1.377855 1.452757 1.262672 1.322542 1.314571
Pattern_3 1.239878 1.170798 1.178179 1.118383 1.264675 1.217883
Pattern_3 1.318993 1.288117 1.227612 1.318483 1.291887 1.421120
Pattern_3 1.216797 1.314407 1.228284 1.155698 1.007598 0.967505
Pattern_3 0.819070 0.753939 0.631401 0.541061 0.500024 0.495080
Pattern_3 0.477083 0.563364 0.584757 0.609157 0.706558 0.778043
Pattern_3 0.961497 1.194189 1.130431 1.261169 1.298952 1.448515
Pattern_3 1.445455 1.415044 1.543952 1.512770 1.566985 1.405827
Pattern_3 1.405323 1.426445 1.308093 1.139244 1.276578 1.102919
Pattern_3 1.194511 1.125098 1.310181 1.263430 1.357908 1.184025
Pattern_3 1.241147 1.341762 1.543930 1.453774 1.361440 1.460788
Pattern_3 1.360668 1.298040 1.182940 1.183712 0.913178 0.991202
Pattern_3 0.835250 0.758490 0.612145 0.584270 0.474889 0.510153
Pattern_3 0.514119 0.540759 0.609526 0.684303 0.785639 0.975754
Pattern_3 1.094163 1.229188 1.503764 1.489842 1.529931 1.609486
Pattern_3 1.762030 1.757456 1.803649 1.901710 1.771214 1.576089
Pattern_3 1.669938 1.422314 1.481004 1.372572 1.429251 1.318207
Pattern_3 1.369497 1.206720 1.367602 1.336575 1.361521 1.326058
Pattern_3 1.181014 1.406742 1.367350 1.410564 1.273198 1.419362
Pattern_3 1.181134 1.239244 1.188116 1.095935 1.090226 1.013538
Pattern_3 0.880603 0.825454 0.755064 0.632739 0.646901 0.583150
Pattern_3 0.543874 0.543528 0.494062 0.597660 0.655721 0.657704
Pattern_3 0.786414 0.892235 1.013785 1.122935 1.185169 1.205651
Pattern_3 1.363230 1.344380 1.488634 1.527071 1.484072 1.294648
Pattern_3 1.571151 1.418760 1.373735 1.315271 1.476955 1.314738
Pattern_3 1.320654 1.316184 1.296024 1.387617 1.352776 1.297750
Pattern_3 1.361158 1.320622 1.345095 1.266678 1.275218 1.060330
Pattern_3 1.155903 1.093202 1.041586 1.051289 0.859059 0.845372
Pattern_3 0.809058 0.786447 0.658914 0.643244 0.616478 0.591749
Pattern_3 0.537405 0.486933 0.508887 0.525318 0.571659 0.594017
Pattern_3 0.625267 0.689591 0.701915 0.888144 0.959413 1.048627
Pattern_3 1.148008 1.247068 1.207441 1.398638 1.227246 1.330159
Pattern_3 1.387534 1.249616 1.316147 1.167188 1.206994 1.178908
Pattern_3 1.158050 1.163054 1.094080 1.167612 1.232106 1.200960
Pattern_3 1.235482 1.249293 1.330516 1.177002 1.318148 1.404984
Pattern_3 1.211603 1.209446 1.053757 1.118574 0.969952 0.816145
Pattern_3 0.774113 0.619901 0.621958 0.538425 0.471717 0.462136
Pattern_3 0.465264 0.463591 0.523976 0.596072 0.740026 0.817453
Pattern_3 0.911386 1.055674 1.164168 1.305774 1.419650 1.463004
Pattern_3 1.670340 1.455169 1.791434 1.755933 1.680823 1.582868
Pattern_3 1.546914 1.517760 1.364351 1.220333 1.203978 1.268093
Pattern_3 1.129452 1.216293 1.183391 1.222384 1.147827 1.222444
Pattern_3 1.236870 1.279313 1.357854 1.283533 1.362952 1.410431
Pattern_3 1.394508 1.138168 1.252494 1.290834 1.150638 0.894404
Pattern_3 0.811811 0.727946 0.665909 0.551498 0.547693 0.496209
Pattern_3 0.490909 0.532272 0.548375 0.677620 0.773921 0.822132
Pattern_3 0.979266 1.004292 1.150107 1.246052 1.389614 1.447360
Pattern_3 1.425332 1.541223 1.452583 1.545938 1.471087 1.466893
Pattern_3 1.364971 1.473743 1.354659 1.270034 1.240872 1.182872
Pattern_3 1.247860 1.144865 1.177080 1.253330 1.234328 1.346197
Pattern_3 1.305448 1.366824 1.469081 1.559458 1.460337 1.377439
Pattern_3 1.332948 1.279811 1.383812 1.206194 1.007612 0.864286
Pattern_3 0.744314 0.695310 0.599041 0.566628 0.498385 0.474237
Pattern_3 0.475808 0.533047 0.607139 0.669678 0.722795 0.856783
Pattern_3 0.996196 1.083376 1.196079 1.280814 1.429528 1.444228
Pattern_3 1.518057 1.500808 1.618357 1.517834 1.561418 1.588912
Pattern_3 1.478952 1.459451 1.197588 1.268449 1.305510 1.136448
Pattern_3 1.306200 1.068725 1.288387 1.157106 1.166692 1.322458
Pattern_3 1.362635 1.373279 1.456165 1.338351 1.362715 1.153671
Pattern_3 1.345976 1.295953 1.287402 1.182891 1.169073 0.887604
Pattern_3 0.904778 0.651394 0.683262 0.522011 0.519366 0.483010
Pattern_3 0.499325 0.508237 0.556994 0.710522 0.777997 0.806547
Pattern_3 0.983901 1.049021 1.146436 1.271259 1.336974 1.436874
Pattern_3 1.496368 1.524369 1.522919 1.481276 1.440185 1.442196
Pattern_3 1.473248 1.282313 1.321332 1.320482 1.307869 1.310988
Pattern_3 1.277609 1.303179 1.200898 1.329191 1.191127 1.296750
Pattern_3 1.237406 1.459194 1.215315 1.363531 1.377721 1.285367
Pattern_3 1.352861 1.298711 1.223802 1.134310 1.016477 0.986189
Pattern_3 0.843143 0.761152 0.634028 0.565903 0.529127 0.545696
Pattern_3 0.498907 0.527017 0.531076 0.742663 0.813518 0.993948
Pattern_3 1.096547 1.208053 1.432767 1.490994 1.514197 1.565371
Pattern_3 1.795289 1.720049 1.739279 1.766012 1.731949 1.618226
Pattern_3 1.587772 1.493691 1.303732 1.423833 1.377032 1.199026
Pattern_3 1.324143 1.197441 1.388233 1.307861 1.192028 1.445700
Pattern_3 1.364803 1.350611 1.305690 1.423479 1.387438 1.308837
Pattern_3 1.337548 1.240321 1.224063 1.201975 1.035093 1.044406
Pattern_3 0.963532 0.773518 0.721913 0.654358 0.606077 0.592624
Pattern_3 0.570359 0.538972 0.592089 0.561398 0.669588 0.695118
Pattern_3 0.905315 0.846287 0.974656 1.092988 1.205691 1.228006
Pattern_3 1.330268 1.552456 1.485652 1.450964 1.463662 1.441291
Pattern_3 1.366392 1.569373 1.244092 1.396879 1.400112 1.402309
Pattern_3 1.344677 1.394159 1.326879 1.270372 1.381444 1.285518
Pattern_3 1.213843 1.458793 1.390228 1.267199 1.296390 1.242862
Pattern_3 1.205525 1.185128 1.028568 0.989354 0.919419 0.928440
Pattern_3 0.750815

Pattern_4 0.814480 0.710639 0.631745 0.557856 0.570189 0.494641
Pattern_4 0.543739 0.519219 0.489477 0.511589 0.510973 0.556618
Pattern_4 0.577509 0.721947 0.720944 0.756108 0.922921 1.039774
Pattern_4 1.164319 1.078991 1.263544 1.311967 1.296346 1.399926
Pattern_4 1.314617 1.355715 1.392373 1.285921 1.246047 1.219248
Pattern_4 1.120356 1.208115 1.183870 1.150731 1.096118 1.121259
Pattern_4 1.174287 1.249955 1.333665 1.191508 1.429343 1.293111
Pattern_4 1.226332 1.047304 1.130936 1.060690 0.965792 0.825201
Pattern_4 0.786171 0.643267 0.571482 0.493812 0.449358 0.449620
Pattern_4 0.441195 0.444150 0.498752 0.631061 0.625382 0.873367
Pattern_4 0.990412 1.097662 1.186494 1.215731 1.510682 1.608571
Pattern_4 1.574818 1.582148 1.799664 1.642556 1.728024 1.609363
Pattern_4 1.579386 1.482552 1.501114 1.212537 1.228852 1.109575
Pattern_4 1.131862 1.099100 1.035365 1.077218 1.202593 1.227249
Pattern_4 1.238263 1.203753 1.347191 1.262293 1.380229 1.528096
Pattern_4 1.301019 1.210581 1.186370 1.120143 1.005196 0.909537
Pattern_4 0.741069 0.681624 0.617133 0.539839 0.455619 0.417231
Pattern_4 0.428908 0.507832 0.546871 0.629820 0.714721 0.846402
Pattern_4 0.973229 1.017792 1.223133 1.203204 1.284778 1.363303
Pattern_4 1.585217 1.611249 1.492150 1.667801 1.601406 1.604209
Pattern_4 1.560417 1.305493 1.317587 1.364195 1.096528 1.212489
Pattern_4 1.201834 1.156351 1.126988 1.186031 1.218009 1.251821
Pattern_4 1.391985 1.233264 1.450400 1.439648 1.393562 1.387886
Pattern_4 1.288532 1.290675 1.245244 1.204913 0.946835 0.917378
Pattern_4 0.716851 0.643096 0.555648 0.496609 0.477105 0.416592
Pattern_4 0.440190 0.450944 0.566369 0.674743 0.778110 0.819682
Pattern_4 0.927572 1.076043 1.277501 1.301241 1.429524 1.390783
Pattern_4 1.591246 1.630970 1.537753 1.649894 1.578154 1.658640
Pattern_4 1.342682 1.517963 1.370588 1.361433 1.267849 1.255105
Pattern_4 1.202323 1.207236 1.128302 1.299956 1.280945 1.200800
Pattern_4 1.445571 1.220683 1.361697 1.315337 1.321090 1.376075
Pattern_4 1.406650 1.200171 1.192371 1.108350 1.110888 0.962323
Pattern_4 0.756391 0.586171 0.625124 0.529614 0.470558 0.485354
Pattern_4 0.439269 0.494416 0.535431 0.682796 0.758130 0.896057
Pattern_4 1.085334 1.207325 1.294169 1.276163 1.524593 1.515075
Pattern_4 1.365324 1.449127 1.491505 1.698865 1.439732 1.418060
Pattern_4 1.448252 1.299011 1.336011 1.235172 1.287339 1.165159
Pattern_4 1.160571 1.159196 1.164760 1.208501 1.263076 1.310110
Pattern_4 1.222201 1.302610 1.428606 1.422202 1.339384 1.347098
Pattern_4 1.419961 1.380900 1.163719 1.050189 1.116874 0.968575
Pattern_4 0.750435 0.675637 0.682815 0.584524 0.502022 0.471893
Pattern_4 0.481030 0.495320 0.593053 0.683900 0.868605 0.998218
Pattern_4 1.111182 1.281837 1.408817 1.708657 1.680107 1.598904
Pattern_4 1.871130 1.717628 1.777798 1.821684 1.726243 1.714044
Pattern_4 1.545823 1.606742 1.382838 1.268643 1.414762 1.381362
Pattern_4 1.332637 1.205893 1.195938 1.303626 1.300785 1.270773
Pattern_4 1.349537 1.370111 1.359224 1.392984 1.227032 1.360865
Pattern_4 1.358650 1.234401 1.100930 1.052377 1.056069 0.932919
Pattern_4 0.862901 0.808189 0.780826 0.648150 0.531167 0.567565
Pattern_4 0.513165 0.555718 0.556711 0.536707 0.643232 0.689258
Pattern_4 0.824912 0.907967 1.018889 1.086737 1.237590 1.325029
Pattern_4 1.473000 1.427344 1.484580 1.416709 1.528707 1.510984
Pattern_4 1.433595 1.493617 1.354790 1.385108 1.318557 1.298385
Pattern_4 1.353445 1.250364 1.253333 1.258333 1.294331 1.297448
Pattern_4 1.176089 1.295097 1.403181 1.314884 1.276518 1.182766
Pattern_4 1.117410 1.148275 1.014023 1.021035 0.836276 0.811344
Pattern_4 0.799036 0.671917 0.644657 0.604376 0.576412 0.549017
Pattern_4 0.525150 0.476227 0.507354 0.540394 0.549137 0.598952
Pattern_4 0.595584 0.658542 0.795962 0.917519 0.912747 1.088685
Pattern_4 1.009166 1.252817 1.408485 1.300905 1.390231 1.351804
Pattern_4 1.303239 1.341578 1.261011 1.295786 1.270588 1.229108
Pattern_4 1.172120 1.131689 1.123270 1.160220 1.307887 1.136039
Pattern_4 1.204283 1.198619 1.193887 1.240513 1.309904 1.137989
Pattern_4 1.317617 1.155295 1.019197 1.028921 0.905281 0.862871
Pattern_4 0.768122 0.675414 0.625249 0.497104 0.506967 0.420207
Pattern_4 0.423854 0.442602 0.523834 0.693725 0.660115 0.856251
Pattern_4 0.956424 1.160862 1.233262 1.336286 1.428577 1.506286
Pattern_4 1.617651 1.743352 1.728475 1.712264 1.617698 1.633954
Pattern_4 1.546295 1.528297 1.300013 1.377535 1.248085 1.136570
Pattern_4 1.047908 1.075764 1.093626 1.128240 1.048751 1.192843
Pattern_4 1.307437 1.328769 1.368452 1.370636 1.390411 1.371059
Pattern_4 1.430827 1.304150 1.299438 1.148023 1.005680 0.933586
Pattern_4 0.805089 0.676970 0.582667 0.562826 0.490928 0.423322
Pattern_4 0.469718 0.515880 0.544701 0.646104 0.691849 0.872174
Pattern_4 0.860086 1.085698 1.315502 1.395609 1.310487 1.416390
Pattern_4 1.484927 1.556345 1.784692 1.639848 1.446056 1.440915
Pattern_4 1.469654 1.465112 1.361206 1.338887 1.242188 1.182262
Pattern_4 1.212840 1.105507 1.168391 1.162596 1.212454 1.437405
Pattern_4 1.234290 1.392410 1.368240 1.564426 1.486719 1.497212
Pattern_4 1.332150 1.294903 1.247237 1.261475 1.161637 0.830024
Pattern_4 0.842184 0.739107 0.527582 0.519787 0.474953 0.457140
Pattern_4 0.529845 0.504659 0.558025 0.619379 0.761109 0.845461
Pattern_4 0.967278 1.090400 1.135081 1.350472 1.450076 1.465943
Pattern_4 1.606389 1.565369 1.546190 1.640761 1.511673 1.559001
Pattern_4 1.628969 1.501964 1.296633 1.430679 1.240148 1.320432
Pattern_4 1.078788 1.185620 1.259765 1.382647 1.293965 1.232566
Pattern_4 1.358839 1.501870 1.375143 1.339241 1.532563 1.420133
Pattern_4 1.337893 1.403351 1.329716 1.165921 1.110831 0.852748
Pattern_4 0.870612 0.731221 0.651357 0.509199 0.475773 0.430914
Pattern_4 0.442224 0.507592 0.537426 0.610234 0.725357 0.859669
Pattern_4 0.978698 1.099579 1.141003 1.349443 1.353541 1.569732
Pattern_4 1.717667 1.549242 1.585236 1.510375 1.585323 1.319563
Pattern_4 1.446822 1.445428 1.319919 1.300424 1.229424 1.150487
Pattern_4 1.285537 1.155746 1.287421 1.246128 1.311000 1.317039
Pattern_4 1.306400 1.340777 1.287011 1.482866 1.372708 1.334961
Pattern_4 1.364914 1.238907 1.264978 1.192744 1.059948 0.950424
Pattern_4 0.840790 0.799769 0.655335 0.582318 0.520167 0.514213
Pattern_4 0.491455 0.582315 0.622866 0.705817 0.774181 1.039057
Pattern_4 1.054601 1.313130 1.467088 1.569722 1.695690 1.840542
Pattern_4 1.892916 1.895251 1.918983 1.829210 1.705782 1.679085
Pattern_4 1.616169 1.496951 1.542583 1.331059 1.447300 1.315160
Pattern_4 1.377239 1.203742 1.348287 1.427737 1.281332 1.344148
Pattern_4 1.426990 1.185700 1.434361 1.423930 1.425934 1.319566
Pattern_4 1.377518 1.316513 1.207347 1.191322 0.925902 0.936505
Pattern_4 0.928391 0.817129 0.695077 0.657165 0.567226 0.575255