; Filename: ../Network_Originals/Hanoi_CMH.inp
; WNTR: 0.4.0
; Created: 2022-11-16 12:23:51
[TITLE]

[JUNCTIONS]
;ID                      Elevation       Demand Pattern                 
 2                                 30          247.22 Pattern_2                  ;
 3                                 30          236.11 Pattern_3                  ;
 4                                 30           36.11 Pattern_4                  ;
 5                                 30          201.39 Pattern_5                  ;
 6                                 30          279.17 Pattern_6                  ;
 7                                 30             375 Pattern_7                  ;
 8                                 30          152.78 Pattern_8                  ;
 9                                 30          145.83 Pattern_9                  ;
 10                                30          145.83 Pattern_10                 ;
 11                                30          138.89 Pattern_11                 ;
 12                                30          155.56 Pattern_12                 ;
 13                                30          261.11 Pattern_13                 ;
 14                                30          170.83 Pattern_14                 ;
 15                                30           77.78 Pattern_15                 ;
 16                                30           86.11 Pattern_16                 ;
 17                                30          240.28 Pattern_17                 ;
 18                                30          373.61 Pattern_18                 ;
 19                                30           16.67 Pattern_19                 ;
 20                                30          354.17 Pattern_20                 ;
 21                                30          258.33 Pattern_21                 ;
 22                                30          134.72 Pattern_22                 ;
 23                                30          290.28 Pattern_23                 ;
 24                                30          227.78 Pattern_24                 ;
 25                                30           47.22 Pattern_25                 ;
 26                                30             250 Pattern_26                 ;
 27                                30          102.78 Pattern_27                 ;
 28                                30           80.56 Pattern_28                 ;
 29                                30             100 Pattern_29                 ;
 30                                30             100 Pattern_30                 ;
 31                                30           29.17 Pattern_31                 ;
 32                                30          223.61 Pattern_32                 ;

[RESERVOIRS]
;ID                                   Head                  Pattern
 1                                100                            ;

[TANKS]
;ID                              Elevation           Init Level            Min Level            Max Level             Diameter           Min Volume Volume Curve         Overflow            

[PIPES]
;ID                   Node1                Node2                              Length             Diameter            Roughness           Minor Loss               Status
 1                    1                    2                                100            1016             130               0                 Open   ;
 2                    2                    3                               1350            1016             130               0                 Open   ;
 3                    3                    4                                900            1016             130               0                 Open   ;
 4                    4                    5                               1150            1016             130               0                 Open   ;
 5                    5                    6                               1450            1016             130               0                 Open   ;
 6                    6                    7                                450            1016             130               0                 Open   ;
 7                    7                    8                                850            1016             130               0                 Open   ;
 8                    8                    9                                850            1016             130               0                 Open   ;
 9                    9                    10                               800            1016             130               0                 Open   ;
 10                   10                   11                               950             762             130               0                 Open   ;
 11                   11                   12                              1200             762             130               0                 Open   ;
 12                   12                   13                              3500           609.6             130               0                 Open   ;
 13                   10                   14                               800           406.4             130               0                 Open   ;
 14                   14                   15                               500           406.4             130               0                 Open   ;
 15                   15                   16                               550           304.8             130               0                 Open   ;
 16                   17                   16                              2730           406.4             130               0                 Open   ;
 17                   17                   18                              1750             508             130               0                 Open   ;
 18                   18                   19                               800           609.6             130               0                 Open   ;
 19                   19                   3                                400           609.6             130               0                 Open   ;
 20                   3                    20                              2200            1016             130               0                 Open   ;
 21                   20                   21                              1500             508             130               0                 Open   ;
 22                   21                   22                               500           304.8             130               0                 Open   ;
 23                   20                   23                              2650            1016             130               0                 Open   ;
 24                   23                   24                              1230             762             130               0                 Open   ;
 25                   24                   25                              1300             762             130               0                 Open   ;
 26                   26                   25                               850             508             130               0                 Open   ;
 27                   27                   26                               300           304.8             130               0                 Open   ;
 28                   16                   27                               750           304.8             130               0                 Open   ;
 29                   23                   28                              1500           406.4             130               0                 Open   ;
 30                   28                   29                              2000           406.4             130               0                 Open   ;
 31                   29                   30                              1600           304.8             130               0                 Open   ;
 32                   30                   31                               150           304.8             130               0                 Open   ;
 33                   32                   31                               860           406.4             130               0                 Open   ;
 34                   25                   32                               950             508             130               0                 Open   ;

[PUMPS]
;ID                   Node1                Node2                Properties          

[VALVES]
;ID                   Node1                Node2                            Diameter Type              Setting           Minor Loss

[TAGS]
;type      name       tag       

[DEMANDS]
;ID        Demand     Pattern   

[STATUS]
;ID        Setting   

[PATTERNS]
;ID        Multipliers

Pattern_2 0.831177 0.772077 0.707596 0.640012 0.638972 0.656972
Pattern_2 0.576910 0.579321 0.561108 0.639844 0.572325 0.650979
Pattern_2 0.739764 0.740584 0.828989 0.941164 0.958056 1.058596
Pattern_2 1.141516 1.216172 1.153516 1.196364 1.209457 1.276586
Pattern_2 1.376336 1.325086 1.281266 1.259691 1.168291 1.147554
Pattern_2 1.054401 1.228729 1.028017 1.088888 1.191862 1.117525
Pattern_2 1.375918 1.102233 1.318339 1.211761 1.235258 1.232216
Pattern_2 1.179061 1.147190 1.042375 1.037441 0.973524 0.857631
Pattern_2 0.785673 0.699729 0.676786 0.618859 0.480590 0.542503
Pattern_2 0.527114 0.541318 0.633499 0.634717 0.793898 0.885470
Pattern_2 1.018535 1.070030 1.114859 1.192798 1.428047 1.438335
Pattern_2 1.656850 1.434293 1.690462 1.748530 1.541731 1.469418
Pattern_2 1.457827 1.503753 1.302510 1.275609 1.282221 1.192288
Pattern_2 1.152738 1.094139 1.181886 1.163672 1.070382 1.190145
Pattern_2 1.237867 1.214249 1.350531 1.384303 1.444806 1.361946
Pattern_2 1.433392 1.257491 1.144659 1.052260 1.010821 0.922157
Pattern_2 0.778863 0.729088 0.685830 0.614283 0.548498 0.553534
Pattern_2 0.517105 0.577329 0.604234 0.696831 0.832713 0.826730
Pattern_2 0.962583 1.080058 1.228909 1.232449 1.372616 1.395174
Pattern_2 1.482180 1.579866 1.578031 1.583566 1.529247 1.555527
Pattern_2 1.373375 1.472706 1.326419 1.345568 1.280954 1.137746
Pattern_2 1.103693 1.227515 1.081968 1.157836 1.245046 1.203584
Pattern_2 1.295340 1.386500 1.440890 1.308864 1.328939 1.396295
Pattern_2 1.264658 1.258859 1.202774 1.075675 0.978925 0.869202
Pattern_2 0.869338 0.734723 0.583021 0.573105 0.589923 0.543775
Pattern_2 0.499639 0.503109 0.670178 0.664478 0.785781 0.900638
Pattern_2 1.012771 1.114098 1.233930 1.229614 1.391858 1.464871
Pattern_2 1.551828 1.392109 1.477582 1.557670 1.489325 1.559847
Pattern_2 1.383033 1.307480 1.379470 1.419659 1.299373 1.217798
Pattern_2 1.248184 1.298584 1.200442 1.281521 1.298354 1.271860
Pattern_2 1.248068 1.333013 1.302715 1.333100 1.374035 1.289401
Pattern_2 1.402420 1.229754 1.226321 1.036489 0.857779 0.889914
Pattern_2 0.899541 0.665265 0.689690 0.594752 0.560226 0.540190
Pattern_2 0.516436 0.585284 0.677198 0.701751 0.815225 0.889521
Pattern_2 1.025715 1.244026 1.184540 1.426232 1.372275 1.616732
Pattern_2 1.529864 1.638271 1.517963 1.407456 1.454563 1.430480
Pattern_2 1.344822 1.314245 1.380120 1.280609 1.310772 1.180431
Pattern_2 1.119433 1.278459 1.178342 1.283812 1.267806 1.182392
Pattern_2 1.306917 1.533216 1.316999 1.357426 1.378949 1.517964
Pattern_2 1.474294 1.212734 1.278382 1.103116 1.069188 0.935668
Pattern_2 0.868520 0.792723 0.612903 0.624325 0.591775 0.617869
Pattern_2 0.532839 0.563181 0.670508 0.774599 0.891041 1.008727
Pattern_2 1.106791 1.163221 1.399319 1.546797 1.631243 1.795780
Pattern_2 1.725276 1.770725 1.866674 1.702131 1.627201 1.699628
Pattern_2 1.581918 1.394391 1.500342 1.349996 1.424211 1.347123
Pattern_2 1.365441 1.253560 1.266758 1.414727 1.392473 1.260724
Pattern_2 1.376454 1.279659 1.250407 1.399352 1.420839 1.439097
Pattern_2 1.352581 1.269530 1.114900 1.059831 1.113897 1.043566
Pattern_2 0.876299 0.886208 0.726718 0.715313 0.605771 0.585283
Pattern_2 0.603273 0.621416 0.571966 0.634203 0.653209 0.762001
Pattern_2 0.822935 1.007202 0.950523 1.106525 1.210611 1.350598
Pattern_2 1.266281 1.322295 1.401887 1.351007 1.451930 1.447244
Pattern_2 1.516172 1.451778 1.572769 1.456801 1.340174 1.338433
Pattern_2 1.262774 1.248474 1.304922 1.327846 1.323653 1.332654
Pattern_2 1.360246 1.104356 1.212441 1.231359 1.220039 1.133371
Pattern_2 1.191306 1.062763 1.048441 0.870933 0.870493 0.856887
Pattern_2 0.861022 0.693092 0.738481 0.683413 0.670734 0.611033
Pattern_2 0.557192 0.622188 0.610638 0.586984 0.625310 0.721691
Pattern_2 0.708242 0.801509 0.824856 0.867520 0.955541 1.113195
Pattern_2 1.129334 1.191287 1.265283 1.183171 1.265533 1.425865
Pattern_2 1.422360 1.222971 1.214751 1.173924 1.285305 1.275247
Pattern_2 1.233103 1.141888 1.163587 1.059245 1.172220 1.227165
Pattern_2 1.264950 1.250121 1.313126 1.326690 1.399198 1.201682
Pattern_2 1.233206 1.357655 1.063250 1.032216 0.961228 0.805335
Pattern_2 0.799127 0.654306 0.642758 0.558052 0.516004 0.521213
Pattern_2 0.518457 0.550529 0.643460 0.644834 0.707547 0.830796
Pattern_2 0.993207 1.112240 1.160440 1.432961 1.538867 1.465207
Pattern_2 1.407830 1.696610 1.653177 1.770548 1.662607 1.510253
Pattern_2 1.519104 1.537699 1.436452 1.354038 1.305916 1.145946
Pattern_2 1.184144 1.130851 1.127390 1.116410 1.284542 1.300239
Pattern_2 1.150227 1.215958 1.334618 1.235198 1.449740 1.403710
Pattern_2 1.415472 1.234127 1.266767 1.306942 1.155491 1.015556
Pattern_2 0.796697 0.807084 0.678859 0.606241 0.546911 0.592190
Pattern_2 0.574438 0.616865 0.643291 0.693420 0.784246 0.841844
Pattern_2 1.016252 1.080054 1.240158 1.366499 1.393153 1.364633
Pattern_2 1.539466 1.461497 1.486470 1.558784 1.357745 1.470645
Pattern_2 1.325048 1.432158 1.378332 1.162023 1.129464 1.131130
Pattern_2 1.143673 1.176664 1.146936 1.235032 1.207966 1.408307
Pattern_2 1.244988 1.410824 1.425209 1.348176 1.304810 1.455417
Pattern_2 1.388360 1.439397 1.218568 1.119249 1.021183 0.925256
Pattern_2 0.934572 0.745540 0.699851 0.571362 0.560136 0.488454
Pattern_2 0.529844 0.581707 0.671922 0.709127 0.829751 0.838011
Pattern_2 1.020873 1.184903 1.191788 1.295406 1.322971 1.522731
Pattern_2 1.464054 1.465807 1.516609 1.618585 1.565283 1.400079
Pattern_2 1.425376 1.542583 1.374832 1.348865 1.310800 1.270242
Pattern_2 1.281962 1.256528 1.114623 1.243246 1.414635 1.283070
Pattern_2 1.317002 1.356488 1.449449 1.372724 1.401151 1.315869
Pattern_2 1.471907 1.304340 1.174908 1.065817 1.026705 1.030627
Pattern_2 0.839323 0.747577 0.576041 0.647768 0.582025 0.580423
Pattern_2 0.536695 0.612366 0.616013 0.720167 0.696294 0.866108
Pattern_2 1.030086 1.142362 1.272206 1.382483 1.418097 1.431697
Pattern_2 1.510424 1.592405 1.521097 1.464504 1.502896 1.492842
Pattern_2 1.322620 1.472616 1.368510 1.317441 1.165713 1.212424
Pattern_2 1.204317 1.132383 1.188485 1.302431 1.289323 1.262040
Pattern_2 1.483654 1.236424 1.443231 1.392995 1.394504 1.368973
Pattern_2 1.373522 1.277098 1.178345 1.152570 1.075110 0.982962
Pattern_2 0.875497 0.827911 0.680575 0.602017 0.585137 0.642900
Pattern_2 0.587791 0.623499 0.671732 0.804827 0.969725 1.032745
Pattern_2 1.095313 1.212812 1.445885 1.473163 1.591717 1.514101
Pattern_2 1.686793 1.662950 1.858266 1.678403 1.670809 1.542228
Pattern_2 1.611931 1.556237 1.457625 1.430141 1.380266 1.357888
Pattern_2 1.181000 1.245159 1.464899 1.255088 1.369168 1.322932
Pattern_2 1.416145 1.477336 1.286893 1.485698 1.474070 1.396923
Pattern_2 1.231149 1.242990 1.207821 1.159650 1.013531 0.991602
Pattern_2 0.863559 0.866962 0.766106 0.740393 0.643756 0.596401
Pattern_2 0.607553 0.638410 0.560194 0.681617 0.656464 0.798327
Pattern_2 0.842800 0.913920 1.097558 1.050952 1.063699 1.243620
Pattern_2 1.422283 1.425613 1.494817 1.562373 1.560488 1.481773
Pattern_2 1.489074 1.485125 1.393284 1.322467 1.404190 1.296171
Pattern_2 1.403772 1.396820 1.393491 1.245909 1.305847 1.366253
Pattern_2 1.374165 1.294628 1.254555 1.331812 1.258966 1.169623
Pattern_2 1.281806 1.182794 1.030662 0.944079 0.871895 0.906722
Pattern_2 0.834601

Pattern_3 0.796229 0.782131 0.670172 0.676737 0.635463 0.634087
Pattern_3 0.574410 0.583491 0.602762 0.588993 0.604820 0.657432
Pattern_3 0.772230 0.715939 0.831928 0.924269 0.919531 1.042406
Pattern_3 1.095292 1.211935 1.225795 1.346555 1.157225 1.280591
Pattern_3 1.310095 1.251369 1.278317 1.228802 1.094750 1.122565
Pattern_3 1.063484 1.085600 1.108827 1.180355 1.185062 1.162096
Pattern_3 1.218901 1.231558 1.234814 1.304705 1.261068 1.342201
Pattern_3 1.372316 1.272174 1.115433 1.060578 1.008203 0.830121
Pattern_3 0.775125 0.736424 0.644294 0.569687 0.554386 0.560631
Pattern_3 0.547789 0.546244 0.608094 0.742947 0.754459 0.891064
Pattern_3 0.947122 1.092092 1.086961 1.310909 1.426240 1.431717
Pattern_3 1.441967 1.460230 1.585285 1.516406 1.539526 1.473978
Pattern_3 1.596463 1.320988 1.158683 1.287305 1.125687 1.144337
Pattern_3 1.124402 1.074192 1.111621 1.200927 1.079984 1.250341
Pattern_3 1.191244 1.257733 1.306095 1.365950 1.377023 1.420512
Pattern_3 1.287541 1.272367 1.283187 1.121244 1.048781 0.924190
Pattern_3 0.775544 0.855391 0.677480 0.656870 0.562758 0.505244
Pattern_3 0.570684 0.534797 0.639646 0.752519 0.729160 0.764415
Pattern_3 0.954191 0.984000 1.085072 1.233764 1.247397 1.409439
Pattern_3 1.496356 1.553164 1.565753 1.423097 1.434545 1.514846
Pattern_3 1.413272 1.263813 1.319860 1.225547 1.159589 1.243219
Pattern_3 1.105379 1.072733 1.051105 1.176818 1.181951 1.302129
Pattern_3 1.315722 1.352055 1.360654 1.373545 1.498061 1.331607
Pattern_3 1.328329 1.211159 1.218366 1.183177 1.152150 0.932293
Pattern_3 0.903514 0.821168 0.674554 0.601714 0.591566 0.577983
Pattern_3 0.587356 0.591152 0.621940 0.696219 0.764351 0.845929
Pattern_3 1.038645 1.136428 1.186175 1.226557 1.377435 1.332744
Pattern_3 1.403648 1.437040 1.635337 1.462473 1.456422 1.303851
Pattern_3 1.261009 1.342485 1.245140 1.299142 1.203184 1.299316
Pattern_3 1.254808 1.234571 1.168494 1.211753 1.180288 1.310640
Pattern_3 1.349161 1.215953 1.226700 1.293934 1.314536 1.201005
Pattern_3 1.298314 1.193377 1.292190 1.081243 1.017505 0.963173
Pattern_3 0.955006 0.810628 0.746054 0.625963 0.601287 0.562019
Pattern_3 0.578738 0.595279 0.651267 0.669183 0.860653 0.914759
Pattern_3 1.040093 1.178157 1.266929 1.307339 1.252342 1.381958
Pattern_3 1.321159 1.502318 1.478743 1.361095 1.377957 1.354123
Pattern_3 1.362165 1.193283 1.304005 1.216277 1.141935 1.186047
Pattern_3 1.168295 1.139472 1.339477 1.186942 1.222932 1.323037
Pattern_3 1.321758 1.292021 1.344946 1.429589 1.327175 1.421243
Pattern_3 1.290543 1.127274 1.157144 0.922093 1.069343 0.920478
Pattern_3 0.859934 0.758395 0.738513 0.624055 0.601554 0.604676
Pattern_3 0.596283 0.603049 0.676461 0.759059 0.859054 1.024545
Pattern_3 1.093706 1.283836 1.324415 1.492306 1.600267 1.597101
Pattern_3 1.810757 1.816662 1.551746 1.724341 1.685659 1.556334
Pattern_3 1.537770 1.368350 1.357879 1.347275 1.259495 1.300334
Pattern_3 1.252119 1.322233 1.333371 1.239366 1.370065 1.293558
Pattern_3 1.330854 1.372695 1.240273 1.326230 1.297066 1.284893
Pattern_3 1.295004 1.238350 1.142810 1.199324 1.032053 0.878020
Pattern_3 0.899219 0.842279 0.801831 0.683875 0.674006 0.619003
Pattern_3 0.611606 0.581188 0.621192 0.611524 0.708559 0.820768
Pattern_3 0.879979 0.861842 1.058937 1.115960 1.237243 1.262914
Pattern_3 1.366596 1.382264 1.466110 1.409696 1.379641 1.453162
Pattern_3 1.404616 1.361568 1.246249 1.310652 1.337030 1.336605
Pattern_3 1.336516 1.368674 1.157326 1.355814 1.228579 1.318723
Pattern_3 1.242464 1.220601 1.154843 1.341234 1.315930 1.259700
Pattern_3 1.200654 1.110217 1.199957 0.939683 1.022762 0.888804
Pattern_3 0.849507 0.809109 0.753435 0.692546 0.635233 0.588320
Pattern_3 0.624924 0.602953 0.641587 0.642943 0.575766 0.711354
Pattern_3 0.696360 0.788679 0.889340 0.938610 0.953290 1.139912
Pattern_3 1.099290 1.175428 1.342401 1.158862 1.222988 1.287883
Pattern_3 1.281931 1.324451 1.281678 1.264364 1.217423 1.201906
Pattern_3 1.155574 1.253021 1.106024 1.233710 1.249668 1.103516
Pattern_3 1.099641 1.343424 1.313386 1.341244 1.320428 1.266873
Pattern_3 1.308051 1.225891 1.172458 0.992805 0.991731 0.946845
Pattern_3 0.796636 0.671373 0.587876 0.578506 0.543073 0.532120
Pattern_3 0.568711 0.608177 0.638122 0.689318 0.761945 0.915411
Pattern_3 0.964099 1.204722 1.212780 1.291718 1.417232 1.585082
Pattern_3 1.468989 1.541376 1.614229 1.587919 1.533723 1.577961
Pattern_3 1.458062 1.313348 1.360638 1.256357 1.310707 1.195901
Pattern_3 1.177971 1.091867 1.128436 0.992681 1.180459 1.281555
Pattern_3 1.162281 1.318628 1.398908 1.446176 1.447336 1.393924
Pattern_3 1.332803 1.360720 1.252474 1.108547 1.124391 0.943322
Pattern_3 0.986034 0.750666 0.659495 0.611628 0.547253 0.525153
Pattern_3 0.567383 0.595804 0.648066 0.630374 0.800459 0.886204
Pattern_3 0.957799 1.059293 1.232635 1.434482 1.380949 1.340641
Pattern_3 1.483407 1.443698 1.532640 1.534873 1.531101 1.576493
Pattern_3 1.429093 1.363579 1.295598 1.215534 1.072367 1.194468
Pattern_3 1.203756 1.194658 1.157708 1.142219 1.323638 1.310722
Pattern_3 1.399880 1.334971 1.376588 1.421340 1.261699 1.362650
Pattern_3 1.378473 1.278419 1.237466 1.070388 1.109435 0.992314
Pattern_3 0.766893 0.776503 0.669087 0.607549 0.554698 0.533469
Pattern_3 0.555944 0.586087 0.626454 0.684572 0.727547 0.891841
Pattern_3 1.055879 1.063747 1.237140 1.251169 1.417715 1.408501
Pattern_3 1.462575 1.421457 1.588799 1.426969 1.475685 1.340543
Pattern_3 1.463007 1.465770 1.299695 1.294984 1.309980 1.313933
Pattern_3 1.222430 1.164564 1.270875 1.211224 1.223987 1.299233
Pattern_3 1.371948 1.336469 1.322765 1.409697 1.425923 1.387427
Pattern_3 1.438381 1.375769 1.170971 1.218759 1.055509 0.890568
Pattern_3 0.950724 0.734203 0.695652 0.678218 0.607248 0.555594
Pattern_3 0.528641 0.575070 0.640456 0.665486 0.826175 0.843798
Pattern_3 0.961302 1.179229 1.261993 1.375039 1.380451 1.368686
Pattern_3 1.535261 1.507867 1.392446 1.491083 1.375857 1.447453
Pattern_3 1.406543 1.338846 1.393018 1.153975 1.229183 1.167256
Pattern_3 1.189177 1.225418 1.356807 1.246329 1.374679 1.374582
Pattern_3 1.329619 1.292895 1.548318 1.313619 1.388310 1.461228
Pattern_3 1.298703 1.219786 1.179323 1.181374 1.046052 0.938340
Pattern_3 0.845031 0.714931 0.678622 0.647929 0.577813 0.580542
Pattern_3 0.543140 0.666292 0.702408 0.819229 0.843438 1.022404
Pattern_3 1.128994 1.241533 1.443886 1.597783 1.691705 1.691129
Pattern_3 1.874134 1.814791 1.735390 1.747761 1.735936 1.631709
Pattern_3 1.541820 1.539531 1.443034 1.405525 1.233408 1.219056
Pattern_3 1.298764 1.277802 1.227474 1.404934 1.245215 1.346008
Pattern_3 1.424510 1.420077 1.403268 1.381475 1.385099 1.364913
Pattern_3 1.223231 1.251099 1.175603 1.176942 1.067766 1.085637
Pattern_3 0.989178 0.821714 0.719511 0.771422 0.716781 0.637682
Pattern_3 0.593234 0.592956 0.654877 0.652231 0.725470 0.742495
Pattern_3 0.750390 0.958338 1.084666 1.169615 1.172612 1.180896
Pattern_3 1.387408 1.419679 1.493135 1.476818 1.579122 1.361947
Pattern_3 1.332035 1.330590 1.361518 1.281762 1.307327 1.269226
Pattern_3 1.237986 1.213186 1.265788 1.400729 1.335959 1.270606
Pattern_3 1.268717 1.438618 1.249240 1.296798 1.291477 1.185557
Pattern_3 1.262703 1.117485 1.126659 0.963564 1.004473 0.900613
Pattern_3 0.774833

Pattern_4 0.753484 0.675339 0.671745 0.549176 0.507437 0.435912
Pattern_4 0.486676 0.438646 0.478175 0.446315 0.487225 0.528844
Pattern_4 0.583159 0.667994 0.774417 0.777223 0.990398 1.038784
Pattern_4 1.100398 1.216636 1.233486 1.307541 1.223207 1.348679
Pattern_4 1.252044 1.309270 1.179492 1.156506 1.114120 1.248676
Pattern_4 1.049121 1.173833 1.088835 1.109106 1.166737 1.287560
Pattern_4 1.260018 1.227401 1.292981 1.420115 1.213706 1.368042
Pattern_4 1.179436 1.315753 1.113407 1.011515 0.992329 0.775179
Pattern_4 0.690345 0.651887 0.557038 0.496681 0.389651 0.385479
Pattern_4 0.381880 0.441343 0.503211 0.511373 0.713844 0.666723
Pattern_4 0.923400 1.086506 1.125013 1.297480 1.428398 1.641243
Pattern_4 1.588670 1.415462 1.478442 1.773268 1.601530 1.563327
Pattern_4 1.587694 1.399853 1.378603 1.352996 1.145184 1.137272
Pattern_4 1.044899 1.103048 1.039560 1.174267 1.126956 1.211992
Pattern_4 1.146439 1.289928 1.312984 1.320509 1.391013 1.350762
Pattern_4 1.308540 1.277470 1.144365 1.188310 0.973124 0.901703
Pattern_4 0.784292 0.661302 0.503872 0.479723 0.450044 0.371888
Pattern_4 0.408076 0.405084 0.454020 0.525322 0.642431 0.747453
Pattern_4 0.893752 1.046045 1.052601 1.312659 1.395224 1.447730
Pattern_4 1.462950 1.655755 1.713158 1.503211 1.608017 1.541569
Pattern_4 1.453440 1.499338 1.347177 1.192185 1.315654 1.236768
Pattern_4 1.156215 1.155370 1.113806 1.148397 1.314791 1.223856
Pattern_4 1.465594 1.338002 1.321086 1.350936 1.370779 1.348834
Pattern_4 1.302844 1.354923 1.237657 1.140468 1.027638 0.920756
Pattern_4 0.765462 0.583662 0.554232 0.479283 0.386455 0.392401
Pattern_4 0.465104 0.482036 0.479499 0.650420 0.783381 0.828908
Pattern_4 0.974387 1.144997 1.229445 1.300529 1.264937 1.481636
Pattern_4 1.559113 1.579608 1.714680 1.657124 1.640076 1.610752
Pattern_4 1.508915 1.437600 1.317057 1.359901 1.325719 1.346487
Pattern_4 1.231815 1.307919 1.225051 1.159701 1.329938 1.296469
Pattern_4 1.313621 1.502582 1.399056 1.398817 1.377441 1.456387
Pattern_4 1.357698 1.328025 1.202320 1.178102 0.989044 0.969234
Pattern_4 0.816863 0.649148 0.581320 0.503741 0.485234 0.421693
Pattern_4 0.405374 0.451728 0.531381 0.627891 0.710645 0.799218
Pattern_4 0.982019 1.136517 1.297230 1.366430 1.545276 1.538502
Pattern_4 1.604624 1.561053 1.559561 1.631207 1.666957 1.514775
Pattern_4 1.273172 1.260543 1.284352 1.284812 1.141251 1.248775
Pattern_4 1.196338 1.155328 1.337548 1.363842 1.353149 1.249328
Pattern_4 1.275636 1.313853 1.499954 1.499097 1.468533 1.463547
Pattern_4 1.362040 1.250968 1.206811 1.154879 0.993543 0.884714
Pattern_4 0.794366 0.662316 0.647077 0.593502 0.456276 0.459796
Pattern_4 0.425332 0.490826 0.574531 0.664496 0.790507 0.972018
Pattern_4 1.091505 1.307953 1.428310 1.556346 1.664752 1.445474
Pattern_4 1.723206 1.675141 1.700444 1.754858 1.738986 1.647719
Pattern_4 1.793068 1.519527 1.474555 1.413446 1.431009 1.308254
Pattern_4 1.319548 1.307154 1.219749 1.456833 1.328235 1.356896
Pattern_4 1.338418 1.434466 1.425532 1.382482 1.371429 1.438495
Pattern_4 1.359035 1.318508 1.168668 1.141358 1.056451 0.976468
Pattern_4 0.810106 0.791241 0.659959 0.616464 0.529699 0.532897
Pattern_4 0.477683 0.492425 0.496309 0.462056 0.563386 0.658471
Pattern_4 0.746282 0.869830 0.934767 1.097989 1.243088 1.349023
Pattern_4 1.251492 1.309327 1.576973 1.564726 1.614830 1.640636
Pattern_4 1.422229 1.482973 1.415902 1.359293 1.309380 1.312144
Pattern_4 1.240481 1.298794 1.331990 1.287021 1.307840 1.242727
Pattern_4 1.307642 1.309709 1.294884 1.375243 1.168403 1.190738
Pattern_4 1.161746 1.136487 1.044319 1.059525 0.959404 0.811444
Pattern_4 0.789406 0.717851 0.648742 0.551354 0.591785 0.520846
Pattern_4 0.447057 0.429863 0.440387 0.465008 0.517523 0.537042
Pattern_4 0.623085 0.669677 0.754896 0.936663 0.977294 1.046401
Pattern_4 1.145049 1.242949 1.338531 1.264248 1.310711 1.445257
Pattern_4 1.481786 1.309027 1.197142 1.264022 1.297722 1.142980
Pattern_4 1.131430 1.248757 1.101176 1.129638 1.227931 1.173287
Pattern_4 1.214830 1.242165 1.230983 1.383294 1.349298 1.325389
Pattern_4 1.283719 1.190013 1.122257 1.079832 1.023598 0.909583
Pattern_4 0.756063 0.626705 0.506175 0.412759 0.433708 0.414648
Pattern_4 0.383820 0.412395 0.526451 0.572799 0.678626 0.773709
Pattern_4 0.912266 1.221302 1.158419 1.293287 1.533020 1.500072
Pattern_4 1.593449 1.559005 1.694850 1.643539 1.622091 1.625559
Pattern_4 1.668767 1.506405 1.441203 1.431449 1.240768 1.175058
Pattern_4 1.100031 1.075315 1.041508 1.151603 1.160880 1.241864
Pattern_4 1.338834 1.314944 1.396458 1.426071 1.482843 1.363694
Pattern_4 1.414531 1.390337 1.301606 1.151948 0.987434 0.914674
Pattern_4 0.750103 0.672097 0.612422 0.503188 0.463594 0.389775
Pattern_4 0.419737 0.442396 0.509428 0.594513 0.656122 0.813614
Pattern_4 0.895069 1.059513 1.225041 1.363501 1.412397 1.606171
Pattern_4 1.574767 1.791462 1.584176 1.691821 1.438278 1.611782
Pattern_4 1.555715 1.506255 1.265294 1.320535 1.318421 1.148442
Pattern_4 1.162455 1.257617 1.172153 1.208885 1.190925 1.299465
Pattern_4 1.237216 1.408313 1.435980 1.401811 1.290551 1.458955
Pattern_4 1.437061 1.368582 1.274298 1.171415 0.996662 0.992263
Pattern_4 0.788825 0.677634 0.585405 0.471095 0.490083 0.409419
Pattern_4 0.409256 0.447312 0.512525 0.597207 0.742631 0.906194
Pattern_4 1.003323 1.210316 1.217133 1.306934 1.376764 1.537735
Pattern_4 1.497261 1.642673 1.636737 1.679353 1.596306 1.561004
Pattern_4 1.533593 1.506960 1.454092 1.419155 1.205240 1.231897
Pattern_4 1.343387 1.296129 1.177955 1.188326 1.384321 1.190651
Pattern_4 1.365574 1.395825 1.478074 1.497719 1.422732 1.447068
Pattern_4 1.303290 1.364071 1.180506 1.213853 0.999944 0.873832
Pattern_4 0.852370 0.704458 0.605815 0.506296 0.432940 0.410293
Pattern_4 0.405209 0.443633 0.460228 0.643163 0.711168 0.848607
Pattern_4 1.043442 1.174756 1.384474 1.320609 1.450945 1.417917
Pattern_4 1.542728 1.425623 1.544407 1.577958 1.635902 1.495570
Pattern_4 1.335048 1.337668 1.484425 1.305580 1.398483 1.229517
Pattern_4 1.267125 1.214666 1.208147 1.269978 1.395156 1.247792
Pattern_4 1.501952 1.340311 1.423211 1.491946 1.524229 1.435122
Pattern_4 1.483072 1.405434 1.355648 1.087709 1.112200 0.926532
Pattern_4 0.799350 0.730580 0.606569 0.543347 0.450330 0.454395
Pattern_4 0.464580 0.528335 0.551893 0.652533 0.806023 1.005464
Pattern_4 1.163740 1.273638 1.428987 1.641467 1.715639 1.886594
Pattern_4 1.891848 1.886817 2.062396 1.769315 1.632321 1.660402
Pattern_4 1.632417 1.638923 1.468359 1.421471 1.379975 1.338765
Pattern_4 1.276944 1.374855 1.219185 1.350496 1.379996 1.345437
Pattern_4 1.354506 1.510408 1.430301 1.447526 1.444230 1.345837
Pattern_4 1.264766 1.332088 1.344756 1.195322 1.034352 1.075057
Pattern_4 0.856880 0.872855 0.682126 0.620812 0.576148 0.564691