; Filename: ../Network_Originals/Hanoi_CMH.inp
; WNTR: 0.4.0
; Created: 2022-11-16 12:23:45
[TITLE]

[JUNCTIONS]
;ID                      Elevation       Demand Pattern                 
 2                                 30          247.22 Pattern_2                  ;
 3                                 30          236.11 Pattern_3                  ;
 4                                 30           36.11 Pattern_4                  ;
 5                                 30          201.39 Pattern_5                  ;
 6                                 30          279.17 Pattern_6                  ;
 7                                 30             375 Pattern_7                  ;
 8                                 30          152.78 Pattern_8                  ;
 9                                 30          145.83 Pattern_9                  ;
 10                                30          145.83 Pattern_10                 ;
 11                                30          138.89 Pattern_11                 ;
 12                                30          155.56 Pattern_12                 ;
 13                                30          261.11 Pattern_13                 ;
 14                                30          170.83 Pattern_14                 ;
 15                                30           77.78 Pattern_15                 ;
 16                                30           86.11 Pattern_16                 ;
 17                                30          240.28 Pattern_17                 ;
 18                                30          373.61 Pattern_18                 ;
 19                                30           16.67 Pattern_19                 ;
 20                                30          354.17 Pattern_20                 ;
 21                                30          258.33 Pattern_21                 ;
 22                                30          134.72 Pattern_22                 ;
 23                                30          290.28 Pattern_23                 ;
 24                                30          227.78 Pattern_24                 ;
 25                                30           47.22 Pattern_25                 ;
 26                                30             250 Pattern_26                 ;
 27                                30          102.78 Pattern_27                 ;
 28                                30           80.56 Pattern_28                 ;
 29                                30             100 Pattern_29                 ;
 30                                30             100 Pattern_30                 ;
 31                                30           29.17 Pattern_31                 ;
 32                                30          223.61 Pattern_32                 ;

[RESERVOIRS]
;ID                                   Head                  Pattern
 1                                100                            ;

[TANKS]
;ID                              Elevation           Init Level            Min Level            Max Level             Diameter           Min Volume Volume Curve         Overflow            

[PIPES]
;ID                   Node1                Node2                              Length             Diameter            Roughness           Minor Loss               Status
 1                    1                    2                                100            1016             130               0                 Open   ;
 2                    2                    3                               1350            1016             130               0                 Open   ;
 3                    3                    4                                900            1016             130               0                 Open   ;
 4                    4                    5                               1150            1016             130               0                 Open   ;
 5                    5                    6                               1450            1016             130               0                 Open   ;
 6                    6                    7                                450            1016             130               0                 Open   ;
 7                    7                    8                                850            1016             130               0                 Open   ;
 8                    8                    9                                850            1016             130               0                 Open   ;
 9                    9                    10                               800            1016             130               0                 Open   ;
 10                   10                   11                               950             762             130               0                 Open   ;
 11                   11                   12                              1200             762             130               0                 Open   ;
 12                   12                   13                              3500           609.6             130               0                 Open   ;
 13                   10                   14                               800           406.4             130               0                 Open   ;
 14                   14                   15                               500           406.4             130               0                 Open   ;
 15                   15                   16                               550           304.8             130               0                 Open   ;
 16                   17                   16                              2730           406.4             130               0                 Open   ;
 17                   17                   18                              1750             508             130               0                 Open   ;
 18                   18                   19                               800           609.6             130               0                 Open   ;
 19                   19                   3                                400           609.6             130               0                 Open   ;
 20                   3                    20                              2200            1016             130               0                 Open   ;
 21                   20                   21                              1500             508             130               0                 Open   ;
 22                   21                   22                               500           304.8             130               0                 Open   ;
 23                   20                   23                              2650            1016             130               0                 Open   ;
 24                   23                   24                              1230             762             130               0                 Open   ;
 25                   24                   25                              1300             762             130               0                 Open   ;
 26                   26                   25                               850             508             130               0                 Open   ;
 27                   27                   26                               300           304.8             130               0                 Open   ;
 28                   16                   27                               750           304.8             130               0                 Open   ;
 29                   23                   28                              1500           406.4             130               0                 Open   ;
 30                   28                   29                              2000           406.4             130               0                 Open   ;
 31                   29                   30                              1600           304.8             130               0                 Open   ;
 32                   30                   31                               150           304.8             130               0                 Open   ;
 33                   32                   31                               860           406.4             130               0                 Open   ;
 34                   25                   32                               950             508             130               0                 Open   ;

[PUMPS]
;ID                   Node1                Node2                Properties          

[VALVES]
;ID                   Node1                Node2                            Diameter Type              Setting           Minor Loss

[TAGS]
;type      name       tag       

[DEMANDS]
;ID        Demand     Pattern   

[STATUS]
;ID        Setting   

[PATTERNS]
;ID        Multipliers

Pattern_2 0.750218 0.705970 0.592731 0.585288 0.570678 0.513719
Pattern_2 0.472715 0.464973 0.468443 0.460264 0.508671 0.577555
Pattern_2 0.637391 0.725136 0.776415 0.886668 0.964920 1.053760
Pattern_2 1.238977 1.211576 1.284433 1.328688 1.380310 1.685128
Pattern_2 1.455085 1.347708 1.354128 1.257102 1.402596 1.239673
Pattern_2 1.264609 1.248945 1.224529 1.140615 1.149885 1.194455
Pattern_2 1.242498 1.241739 1.368299 1.184533 1.420092 1.186035
Pattern_2 1.300502 1.057746 1.093374 1.083715 0.911759 0.809898
Pattern_2 0.746803 0.603492 0.516149 0.493970 0.478818 0.417304
Pattern_2 0.409218 0.486918 0.522669 0.579044 0.710593 0.817151
Pattern_2 0.881611 1.071068 1.159000 1.373718 1.363489 1.568141
Pattern_2 1.706646 1.705309 1.668094 1.603584 1.602142 1.708415
Pattern_2 1.646761 1.478465 1.385943 1.289136 1.224666 1.140351
Pattern_2 1.204209 1.139359 1.110905 1.156194 1.219095 1.219009
Pattern_2 1.321992 1.315400 1.378296 1.409042 1.407934 1.316937
Pattern_2 1.350455 1.203780 1.234912 1.193190 0.935738 0.896347
Pattern_2 0.778514 0.687655 0.575899 0.465867 0.450336 0.448575
Pattern_2 0.428764 0.492942 0.553653 0.615021 0.720244 0.817928
Pattern_2 0.968025 1.008548 1.128097 1.215474 1.298923 1.506377
Pattern_2 1.571931 1.465689 1.628952 1.768912 1.593094 1.313291
Pattern_2 1.459159 1.414910 1.274355 1.288092 1.300391 1.288636
Pattern_2 1.222070 1.278736 1.247870 1.215619 1.198653 1.271086
Pattern_2 1.360828 1.372062 1.539306 1.522646 1.442376 1.360972
Pattern_2 1.366031 1.243350 1.130944 1.102445 0.967426 0.841148
Pattern_2 0.781961 0.736810 0.549534 0.504511 0.466638 0.450427
Pattern_2 0.439026 0.459043 0.597730 0.636797 0.722088 0.824443
Pattern_2 1.028799 1.114451 1.168825 1.259383 1.374444 1.498337
Pattern_2 1.535964 1.711362 1.568062 1.526899 1.545259 1.520898
Pattern_2 1.570072 1.483305 1.496264 1.389811 1.398224 1.259202
Pattern_2 1.382920 1.180070 1.351454 1.297970 1.359720 1.248432
Pattern_2 1.351539 1.373479 1.524883 1.413831 1.450412 1.268711
Pattern_2 1.310451 1.245902 1.193177 1.126090 0.991303 0.792134
Pattern_2 0.813711 0.700184 0.552410 0.499295 0.479682 0.439034
Pattern_2 0.453614 0.482557 0.551382 0.686639 0.748483 0.830653
Pattern_2 0.909001 1.126680 1.084229 1.293368 1.386615 1.522036
Pattern_2 1.673839 1.585209 1.575261 1.659650 1.507997 1.487673
Pattern_2 1.419329 1.545634 1.211815 1.364154 1.184967 1.299198
Pattern_2 1.239756 1.239764 1.292346 1.290382 1.221531 1.241569
Pattern_2 1.408124 1.258673 1.326421 1.450344 1.461371 1.315877
Pattern_2 1.218640 1.289534 1.115707 1.136969 0.930228 0.866628
Pattern_2 0.723521 0.689510 0.592196 0.535273 0.486539 0.452813
Pattern_2 0.472707 0.543689 0.623581 0.646107 0.799361 0.938988
Pattern_2 1.084745 1.292077 1.358159 1.623873 1.554668 1.678406
Pattern_2 1.947769 1.705055 1.706999 1.810094 1.744762 1.617793
Pattern_2 1.621372 1.520299 1.610746 1.360013 1.269030 1.410241
Pattern_2 1.395532 1.362546 1.226864 1.327984 1.483753 1.367087
Pattern_2 1.407202 1.387251 1.380286 1.475988 1.363638 1.265314
Pattern_2 1.220643 1.187432 1.222522 1.084278 1.035224 0.952407
Pattern_2 0.845248 0.763915 0.680561 0.616244 0.565742 0.526560
Pattern_2 0.472081 0.509364 0.522985 0.594483 0.582572 0.699013
Pattern_2 0.812752 0.947344 0.960089 1.256512 1.299477 1.286821
Pattern_2 1.291135 1.504384 1.510605 1.584711 1.427662 1.348818
Pattern_2 1.372412 1.425476 1.356983 1.468374 1.370996 1.297328
Pattern_2 1.458804 1.373678 1.309903 1.419650 1.347674 1.379236
Pattern_2 1.286131 1.406560 1.240206 1.363251 1.273818 1.130038
Pattern_2 1.144938 1.058443 1.030042 0.918602 0.906361 0.825001
Pattern_2 0.730234 0.677581 0.600343 0.543674 0.538318 0.520687
Pattern_2 0.503928 0.477677 0.503157 0.494345 0.558108 0.643229
Pattern_2 0.659037 0.758316 0.804565 0.880343 1.025461 1.115826
Pattern_2 1.110083 1.320864 1.349617 1.398114 1.312758 1.460433
Pattern_2 1.313147 1.416884 1.411278 1.251164 1.326042 1.172107
Pattern_2 1.258502 1.277585 1.252660 1.171028 1.251520 1.140866
Pattern_2 1.220893 1.294036 1.286318 1.199325 1.303312 1.342424
Pattern_2 1.165886 1.145176 1.144567 1.059809 0.956277 0.852926
Pattern_2 0.705224 0.658766 0.537384 0.489870 0.438354 0.415364
Pattern_2 0.431149 0.436980 0.530076 0.602925 0.711258 0.829751
Pattern_2 0.962480 1.138234 1.199249 1.310302 1.362515 1.366456
Pattern_2 1.746267 1.740518 1.826483 1.663497 1.739204 1.717087
Pattern_2 1.532787 1.544807 1.442452 1.515486 1.389269 1.285826
Pattern_2 1.218754 1.161033 1.191375 1.250126 1.181862 1.185099
Pattern_2 1.315961 1.319461 1.394909 1.339786 1.327929 1.331049
Pattern_2 1.245092 1.222048 1.248116 1.058695 1.006770 0.904890
Pattern_2 0.752789 0.672423 0.554460 0.475931 0.462339 0.455956
Pattern_2 0.416891 0.479227 0.543277 0.602879 0.720987 0.737887
Pattern_2 1.024729 1.091402 1.188800 1.315514 1.445117 1.491073
Pattern_2 1.577371 1.532604 1.703066 1.663279 1.661714 1.526474
Pattern_2 1.468124 1.471321 1.495727 1.359732 1.292911 1.306909
Pattern_2 1.210045 1.210590 1.199654 1.297886 1.346368 1.304752
Pattern_2 1.340796 1.398594 1.536547 1.336749 1.430524 1.481033
Pattern_2 1.318404 1.449717 1.131274 1.228497 0.950535 0.849422
Pattern_2 0.758885 0.709535 0.543459 0.506186 0.448673 0.465155
Pattern_2 0.446103 0.495847 0.563658 0.645316 0.727771 0.909099
Pattern_2 0.963002 1.145645 1.437394 1.349062 1.404870 1.463683
Pattern_2 1.693599 1.588992 1.563592 1.752581 1.537253 1.463061
Pattern_2 1.483136 1.545021 1.437082 1.398184 1.420353 1.399496
Pattern_2 1.351015 1.380412 1.338858 1.358330 1.267295 1.414499
Pattern_2 1.421515 1.402763 1.353556 1.456181 1.455728 1.320052
Pattern_2 1.389687 1.282264 1.276409 1.161590 1.085633 0.886044
Pattern_2 0.817625 0.673663 0.599336 0.506457 0.474940 0.487127
Pattern_2 0.473796 0.476249 0.545617 0.614282 0.757544 0.833115
Pattern_2 0.956355 1.196458 1.332762 1.432215 1.458904 1.503012
Pattern_2 1.598805 1.698686 1.640756 1.539232 1.667040 1.510207
Pattern_2 1.526074 1.500556 1.410616 1.234369 1.261132 1.248069
Pattern_2 1.308718 1.319253 1.294689 1.334128 1.236372 1.303580
Pattern_2 1.387747 1.393298 1.223899 1.367898 1.422353 1.400322
Pattern_2 1.409482 1.241039 1.285149 1.032855 1.003976 0.839691
Pattern_2 0.810380 0.699949 0.592603 0.531598 0.479256 0.466287
Pattern_2 0.468605 0.486086 0.625869 0.747542 0.822690 0.972771
Pattern_2 1.161151 1.186386 1.431603 1.637869 1.606493 1.725447
Pattern_2 1.874636 1.704781 1.729645 1.885980 1.762163 1.725579
Pattern_2 1.523691 1.491591 1.356873 1.443595 1.447856 1.263398
Pattern_2 1.325329 1.292444 1.344267 1.369546 1.293498 1.260366
Pattern_2 1.321892 1.325320 1.346787 1.511038 1.317467 1.253396
Pattern_2 1.323939 1.153580 1.226438 1.147868 0.978406 0.922002
Pattern_2 0.875441 0.839021 0.732117 0.610234 0.516613 0.512274
Pattern_2 0.518206 0.522848 0.523456 0.525680 0.662450 0.760577
Pattern_2 0.766001 0.857630 0.998960 1.113098 1.285121 1.402032
Pattern_2 1.487770 1.461802 1.411753 1.474088 1.665484 1.434937
Pattern_2 1.668307 1.469239 1.395782 1.451338 1.502204 1.390929
Pattern_2 1.550479 1.425251 1.322414 1.310994 1.399479 1.403377
Pattern_2 1.442424 1.428304 1.255064 1.323299 1.162304 1.094066
Pattern_2 1.189649 1.167643 0.981123 1.001037 0.832704 0.865509
Pattern_2 0.733494

Pattern_3 0.687184 0.697860 0.637261 0.589902 0.537113 0.498661
Pattern_3 0.485025 0.511233 0.484856 0.458751 0.514823 0.587389
Pattern_3 0.650297 0.749380 0.756354 0.893592 1.065832 1.189027
Pattern_3 1.235358 1.271525 1.305562 1.404729 1.429115 1.368297
Pattern_3 1.465682 1.306807 1.227860 1.269696 1.141486 1.254380
Pattern_3 1.265579 1.074150 1.126058 1.116927 1.140494 1.207835
Pattern_3 1.208811 1.247124 1.209380 1.362076 1.244013 1.225749
Pattern_3 1.117799 1.113735 1.059668 0.942502 0.958528 0.732901
Pattern_3 0.683415 0.589950 0.485287 0.443634 0.421199 0.380815
Pattern_3 0.384833 0.435007 0.504870 0.593290 0.685339 0.796909
Pattern_3 0.933037 1.100082 1.226653 1.359593 1.490521 1.446020
Pattern_3 1.626864 1.701281 1.722040 1.688324 1.673107 1.553197
Pattern_3 1.436846 1.515777 1.427634 1.419235 1.215042 1.136806
Pattern_3 1.015183 1.189482 1.129291 1.187121 1.192305 1.203721
Pattern_3 1.259851 1.408460 1.364501 1.357504 1.391092 1.383784
Pattern_3 1.343849 1.289693 1.150164 1.115578 0.942155 0.829496
Pattern_3 0.762410 0.614309 0.538104 0.456831 0.455303 0.418784
Pattern_3 0.473131 0.443425 0.560467 0.598224 0.659234 0.767195
Pattern_3 0.952742 1.079941 1.239272 1.316161 1.487240 1.500159
Pattern_3 1.515277 1.691688 1.642143 1.695532 1.636967 1.461744
Pattern_3 1.483692 1.450984 1.457774 1.435208 1.067546 1.259200
Pattern_3 1.146950 1.131898 1.136881 1.106699 1.227020 1.257572
Pattern_3 1.286054 1.382658 1.411047 1.412592 1.310362 1.429710
Pattern_3 1.288335 1.347756 1.211033 1.003300 1.047110 0.865943
Pattern_3 0.721016 0.631337 0.550750 0.461824 0.474922 0.391683
Pattern_3 0.452288 0.469530 0.545936 0.578834 0.741248 0.835641
Pattern_3 1.009612 1.124557 1.365539 1.317679 1.385487 1.529367
Pattern_3 1.619087 1.748091 1.655590 1.611154 1.537349 1.600391
Pattern_3 1.494916 1.538894 1.381916 1.339698 1.332276 1.298793
Pattern_3 1.273202 1.255722 1.161456 1.203646 1.299010 1.276688
Pattern_3 1.221115 1.377926 1.364590 1.418632 1.468047 1.343213
Pattern_3 1.279932 1.251270 1.209143 1.068074 1.065181 0.916981
Pattern_3 0.795009 0.695728 0.506391 0.509643 0.406079 0.434626
Pattern_3 0.424168 0.469668 0.588085 0.610987 0.755877 0.859901
Pattern_3 0.991233 1.169388 1.324665 1.369505 1.363278 1.664886
Pattern_3 1.638892 1.705643 1.476455 1.610759 1.620514 1.674322
Pattern_3 1.292497 1.279802 1.402442 1.336458 1.218507 1.289551
Pattern_3 1.198584 1.224141 1.228325 1.155626 1.193013 1.235594
Pattern_3 1.409244 1.507938 1.422655 1.499111 1.377678 1.332242
Pattern_3 1.199328 1.145189 1.142676 1.149154 1.014201 1.033795
Pattern_3 0.784408 0.652323 0.640275 0.476442 0.477890 0.416082
Pattern_3 0.430311 0.457067 0.654037 0.636901 0.812249 0.958060
Pattern_3 1.165179 1.302117 1.414903 1.582890 1.686540 1.753405
Pattern_3 1.787567 1.717160 1.957397 1.701535 1.909084 1.662423
Pattern_3 1.656940 1.552580 1.471320 1.498902 1.435790 1.318000
Pattern_3 1.334935 1.230144 1.362361 1.389343 1.370437 1.347936
Pattern_3 1.366148 1.359973 1.408475 1.300940 1.377509 1.210934
Pattern_3 1.253851 1.211579 1.213749 1.042152 1.040512 0.938301
Pattern_3 0.808005 0.785925 0.639644 0.574362 0.580442 0.465671
Pattern_3 0.500863 0.497429 0.521185 0.547668 0.617251 0.673682
Pattern_3 0.781357 0.869161 1.009413 1.117338 1.293358 1.345110
Pattern_3 1.404237 1.479068 1.517211 1.544993 1.589666 1.612621
Pattern_3 1.474117 1.526799 1.410189 1.497827 1.430162 1.395628
Pattern_3 1.346154 1.398663 1.235941 1.307295 1.368502 1.441474
Pattern_3 1.295600 1.282560 1.271962 1.332934 1.176008 1.202717
Pattern_3 1.065536 1.001135 1.019709 0.875864 0.883265 0.811693
Pattern_3 0.727858 0.661817 0.683740 0.578164 0.570270 0.544162
Pattern_3 0.470887 0.477635 0.494291 0.506136 0.487884 0.646003
Pattern_3 0.689623 0.729001 0.893983 0.960608 1.046364 1.100169
Pattern_3 1.107932 1.289082 1.231623 1.345469 1.297659 1.375527
Pattern_3 1.374358 1.374273 1.313432 1.249229 1.251868 1.176801
Pattern_3 1.239111 1.195489 1.208180 1.164925 1.102258 1.185779
Pattern_3 1.250399 1.203168 1.294750 1.359262 1.249718 1.208545
Pattern_3 1.141520 1.195954 1.058617 1.087002 0.921103 0.818343
Pattern_3 0.687235 0.598037 0.482192 0.469949 0.416075 0.403180
Pattern_3 0.450012 0.412042 0.518153 0.601987 0.780682 0.840118
Pattern_3 0.872689 1.203560 1.253866 1.252683 1.674352 1.611007
Pattern_3 1.735683 1.548813 1.727242 1.695844 1.713926 1.853465
Pattern_3 1.476604 1.447937 1.448321 1.230763 1.342054 1.208472
Pattern_3 1.084344 1.002141 1.103465 1.071885 1.275836 1.229622
Pattern_3 1.278108 1.374303 1.349979 1.468214 1.459722 1.367913
Pattern_3 1.301728 1.279600 1.203276 1.057407 0.988277 0.916763
Pattern_3 0.797210 0.640474 0.577394 0.484918 0.447025 0.472232
Pattern_3 0.423169 0.466532 0.480507 0.626241 0.737541 0.871417
Pattern_3 0.990471 1.106381 1.232634 1.207432 1.446085 1.557036
Pattern_3 1.432999 1.672767 1.532522 1.688314 1.591511 1.516043
Pattern_3 1.510433 1.515657 1.399049 1.368339 1.272856 1.209346
Pattern_3 1.146998 1.112344 1.113373 1.201962 1.210734 1.203042
Pattern_3 1.291681 1.391476 1.474303 1.462606 1.355700 1.428941
Pattern_3 1.140008 1.404896 1.303218 1.057977 1.041750 0.875043
Pattern_3 0.752295 0.641172 0.547814 0.510359 0.411513 0.398043
Pattern_3 0.407885 0.468693 0.574489 0.636014 0.710874 0.952851
Pattern_3 0.943123 1.118570 1.244785 1.427110 1.491671 1.484476
Pattern_3 1.646860 1.440955 1.781300 1.596025 1.546400 1.549909
Pattern_3 1.511128 1.489205 1.462509 1.315339 1.345934 1.303375
Pattern_3 1.209969 1.310929 1.357761 1.229425 1.254847 1.174038
Pattern_3 1.478478 1.350191 1.475088 1.363055 1.316742 1.401647
Pattern_3 1.356598 1.299291 1.195650 1.153115 0.992775 0.978810
Pattern_3 0.813767 0.660507 0.582114 0.439742 0.452287 0.403169
Pattern_3 0.484229 0.424966 0.510898 0.647492 0.774583 0.891623
Pattern_3 1.130621 1.201789 1.212080 1.395835 1.575801 1.589482
Pattern_3 1.632821 1.728891 1.892085 1.640805 1.411265 1.384702
Pattern_3 1.446519 1.428010 1.297827 1.361992 1.303134 1.195012
Pattern_3 1.324452 1.142831 1.256307 1.247182 1.300720 1.353821
Pattern_3 1.294563 1.392040 1.269712 1.377995 1.236720 1.357474
Pattern_3 1.333779 1.206495 1.278707 1.122062 0.971958 0.939897
Pattern_3 0.863284 0.740428 0.591994 0.543074 0.486646 0.440159
Pattern_3 0.463308 0.534308 0.609669 0.691880 0.831564 0.956763
Pattern_3 1.152953 1.278518 1.525499 1.611933 1.757722 1.851095
Pattern_3 1.802950 1.816351 1.990669 2.018510 1.910132 1.681223
Pattern_3 1.599163 1.632691 1.530260 1.407633 1.425837 1.470718
Pattern_3 1.276653 1.338226 1.230518 1.264653 1.290676 1.386263
Pattern_3 1.280935 1.333212 1.408026 1.334514 1.291040 1.359252
Pattern_3 1.274176 1.197369 1.307680 1.152553 1.093117 1.015875
Pattern_3 0.882075 0.735456 0.686349 0.622354 0.540966 0.525007
Pattern_3 0.539876 0.461538 0.464828 0.557993 0.588200 0.699881
Pattern_3 0.828038 0.945017 0.913765 1.084853 1.314688 1.408752
Pattern_3 1.471723 1.400685 1.616098 1.507596 1.394157 1.555503
Pattern_3 1.385188 1.554109 1.573850 1.318499 1.398875 1.465148
Pattern_3 1.330772 1.325153 1.320885 1.334605 1.295500 1.284773
Pattern_3 1.488098 1.365650 1.381350 1.190435 1.266109 1.205541
Pattern_3 1.095424 1.060494 1.080841 0.980335 0.931585 0.799918
Pattern_3 0.710493

Pattern_4 0.764355 0.726595 0.684762 0.684075 0.618381 0.517719
Pattern_4 0.540240 0.504990 0.540066 0.519078 0.545750 0.625974
Pattern_4 0.615085 0.742733 0.881136 0.843723 0.874888 1.101521
Pattern_4 1.258043 1.159623 1.331932 1.376927 1.389122 1.286990
Pattern_4 1.305364 1.268128 1.305366 1.247181 1.331178 1.146498
Pattern_4 1.166403 1.062288 1.033531 1.131216 1.098292 1.179080
Pattern_4 1.204116 1.201241 1.142841 1.199972 1.314188 1.283087
Pattern_4 1.171447 1.167550 1.094705 0.933515 0.938782 0.799671
Pattern_4 0.759651 0.700968 0.561152 0.568309 0.478313 0.499717
Pattern_4 0.481708 0.539971 0.530719 0.600461 0.721934 0.760792
Pattern_4 0.960826 0.959452 1.119075 1.244025 1.453952 1.495048
Pattern_4 1.628529 1.623070 1.614786 1.514008 1.677943 1.568991
Pattern_4 1.627147 1.487655 1.382711 1.249001 1.276815 1.224038
Pattern_4 1.128482 1.080225 1.101744 1.132571 1.065009 1.193839
Pattern_4 1.301460 1.269496 1.214469 1.347865 1.406091 1.312036
Pattern_4 1.302105 1.283025 1.264217 1.025252 0.961566 0.875819
Pattern_4 0.782684 0.623690 0.663748 0.545076 0.460547 0.477687
Pattern_4 0.505215 0.484769 0.622295 0.636167 0.711670 0.848170
Pattern_4 0.951828 1.184288 1.126767 1.310363 1.325430 1.499003
Pattern_4 1.455179 1.498800 1.604127 1.468599 1.490613 1.538902
Pattern_4 1.438328 1.382259 1.427505 1.190641 1.301243 1.120109
Pattern_4 1.112905 1.111533 1.223416 1.125315 1.267755 1.236417
Pattern_4 1.240844 1.213275 1.388579 1.468430 1.372390 1.359482
Pattern_4 1.393599 1.254404 1.294061 1.140717 1.009705 0.894865
Pattern_4 0.826167 0.602566 0.636842 0.588913 0.527900 0.507200
Pattern_4 0.524508 0.536391 0.607793 0.678634 0.781120 0.916657
Pattern_4 1.045070 1.183100 1.250970 1.319317 1.321913 1.472787
Pattern_4 1.677697 1.366243 1.509560 1.392908 1.524652 1.617176
Pattern_4 1.600840 1.444895 1.352854 1.445762 1.168401 1.278819
Pattern_4 1.214425 1.254455 1.225777 1.159522 1.319178 1.304027
Pattern_4 1.137021 1.340824 1.325572 1.301693 1.388189 1.288924
Pattern_4 1.391734 1.400384 1.163970 1.095906 1.016295 0.906199
Pattern_4 0.827471 0.783978 0.645504 0.588557 0.571383 0.494244
Pattern_4 0.543099 0.487241 0.579892 0.766113 0.768196 0.836169
Pattern_4 1.035961 1.153609 1.139580 1.343608 1.302793 1.596042
Pattern_4 1.493602 1.539705 1.494815 1.617799 1.609575 1.478043
Pattern_4 1.483292 1.286569 1.292802 1.228681 1.250738 1.196641
Pattern_4 1.176972 1.260041 1.158370 1.160085 1.333956 1.285336
Pattern_4 1.340154 1.426714 1.307243 1.260922 1.300371 1.358404
Pattern_4 1.313650 1.265446 1.289503 1.129950 1.060713 0.974783
Pattern_4 0.815792 0.695133 0.706470 0.618236 0.536002 0.525997
Pattern_4 0.566353 0.551905 0.726631 0.790669 0.903043 0.995175
Pattern_4 1.146658 1.108238 1.439873 1.483130 1.556880 1.666821
Pattern_4 1.791554 1.830662 1.664827 1.702337 1.547887 1.672791
Pattern_4 1.589669 1.597558 1.398349 1.388107 1.371117 1.351145
Pattern_4 1.365036 1.152491 1.351696 1.346873 1.484963 1.285692
Pattern_4 1.322423 1.403378 1.377226 1.381849 1.360803 1.389990
Pattern_4 1.233745 1.154366 1.241107 1.092375 1.024617 0.989509
Pattern_4 0.931061 0.813276 0.767498 0.679754 0.657250 0.631909
Pattern_4 0.564099 0.578247 0.562644 0.562750 0.623494 0.756377
Pattern_4 0.839546 0.855268 0.995778 1.137123 1.213055 1.279205
Pattern_4 1.480233 1.443114 1.450529 1.488047 1.452326 1.372085
Pattern_4 1.488481 1.411586 1.477414 1.279379 1.352201 1.331409
Pattern_4 1.320645 1.462849 1.325629 1.281386 1.329356 1.346047
Pattern_4 1.302346 1.317365 1.261681 1.334279 1.178742 1.131001
Pattern_4 1.121899 1.097193 0.977465 0.928205 0.915685 0.827165
Pattern_4 0.843372 0.800451 0.773253 0.675057 0.620992 0.597219
Pattern_4 0.568072 0.563472 0.531539 0.529307 0.565982 0.600480
Pattern_4 0.699407 0.731904 0.724234 0.837903 0.983317 1.024047
Pattern_4 1.122862 1.248619 1.252576 1.305316 1.276783 1.414007
Pattern_4 1.384201 1.429316 1.309377 1.342241 1.334802 1.184931
Pattern_4 1.231657 1.240868 1.253376 1.144318 1.158643 1.162006
Pattern_4 1.197953 1.227994 1.246092 1.279380 1.371279 1.210108
Pattern_4 1.174514 1.198372 1.191997 0.995015 0.967665 0.876902
Pattern_4 0.783795 0.686058 0.634234 0.545508 0.497193 0.500514
Pattern_4 0.481314 0.451578 0.528623 0.596778 0.704650 0.862179
Pattern_4 0.923396 1.130404 1.091715 1.366101 1.413742 1.440991
Pattern_4 1.521661 1.660179 1.643809 1.794605 1.512111 1.624609
Pattern_4 1.449746 1.498393 1.418986 1.441743 1.255239 1.245391
Pattern_4 1.192407 1.187769 1.213560 1.088588 1.049178 1.152664
Pattern_4 1.224117 1.379249 1.316067 1.448007 1.290849 1.430115
Pattern_4 1.379939 1.297196 1.209914 1.024929 1.143271 0.993853
Pattern_4 0.816991 0.756556 0.649864 0.563703 0.531624 0.538019
Pattern_4 0.528650 0.538441 0.585638 0.695799 0.739916 0.831887
Pattern_4 0.988849 1.185023 1.200076 1.260163 1.594474 1.382223
Pattern_4 1.468628 1.549776 1.515210 1.484897 1.519404 1.463313
Pattern_4 1.378167 1.529971 1.311540 1.181755 1.298219 1.244937
Pattern_4 1.192087 1.141998 1.104417 1.180127 1.214873 1.302572
Pattern_4 1.405918 1.295938 1.432389 1.391607 1.451819 1.445780
Pattern_4 1.418648 1.297843 1.269041 1.245763 1.031090 0.870949
Pattern_4 0.769290 0.707896 0.610398 0.537005 0.507970 0.514187
Pattern_4 0.501145 0.528269 0.596304 0.685017 0.802707 0.878173
Pattern_4 1.056079 1.099896 1.237842 1.364090 1.440203 1.498129
Pattern_4 1.546160 1.635882 1.512671 1.539111 1.644226 1.515488
Pattern_4 1.535205 1.410706 1.561872 1.245877 1.349963 1.231746
Pattern_4 1.335337 1.274776 1.244534 1.339174 1.357505 1.326989
Pattern_4 1.248995 1.283048 1.339158 1.430500 1.313204 1.396590
Pattern_4 1.258347 1.315876 1.201369 1.125802 0.949831 0.910547
Pattern_4 0.790791 0.680283 0.658692 0.541255 0.584637 0.505188
Pattern_4 0.520512 0.557083 0.542024 0.636898 0.786267 0.922977
Pattern_4 0.999844 1.150791 1.128184 1.281084 1.438928 1.546215
Pattern_4 1.588400 1.495703 1.558630 1.512559 1.490363 1.440907
Pattern_4 1.262865 1.322307 1.279013 1.318215 1.305030 1.317747
Pattern_4 1.228264 1.262366 1.232477 1.277946 1.147665 1.166166
Pattern_4 1.292815 1.240143 1.449623 1.385308 1.409400 1.242921
Pattern_4 1.348328 1.434136 1.236623 1.113856 0.998199 0.939517
Pattern_4 0.907987 0.720946 0.736306 0.612109 0.578460 0.509846
Pattern_4 0.525566 0.616833 0.627112 0.742361 0.817242 1.028444
Pattern_4 1.127341 1.279884 1.375760 1.572298 1.825358 1.546366
Pattern_4 1.748324 1.623579 1.824263 1.808083 1.656922 1.649506
Pattern_4 1.545002 1.465368 1.472129 1.351392 1.323481 1.342704
Pattern_4 1.224065 1.383024 1.409016 1.261966 1.340526 1.315686
Pattern_4 1.479691 1.380973 1.345093 1.321316 1.348691 1.347487
Pattern_4 1.161403 1.230389 1.201261 1.108011 1.153818 0.907413
Pattern_4 0.925526 0.840508 0.715444 0.732451 0.616408 0.622663