; Filename: ../Network_Originals/Hanoi_CMH.inp
; WNTR: 0.4.0
; Created: 2022-11-16 12:23:40
[TITLE]

[JUNCTIONS]
;ID                      Elevation       Demand Pattern                 
 2                                 30          247.22 Pattern_2                  ;
 3                                 30          236.11 Pattern_3                  ;
 4                                 30           36.11 Pattern_4                  ;
 5                                 30          201.39 Pattern_5                  ;
 6                                 30          279.17 Pattern_6                  ;
 7                                 30             375 Pattern_7                  ;
 8                                 30          152.78 Pattern_8                  ;
 9                                 30          145.83 Pattern_9                  ;
 10                                30          145.83 Pattern_10                 ;
 11                                30          138.89 Pattern_11                 ;
 12                                30          155.56 Pattern_12                 ;
 13                                30          261.11 Pattern_13                 ;
 14                                30          170.83 Pattern_14                 ;
 15                                30           77.78 Pattern_15                 ;
 16                                30           86.11 Pattern_16                 ;
 17                                30          240.28 Pattern_17                 ;
 18                                30          373.61 Pattern_18                 ;
 19                                30           16.67 Pattern_19                 ;
 20                                30          354.17 Pattern_20                 ;
 21                                30          258.33 Pattern_21                 ;
 22                                30          134.72 Pattern_22                 ;
 23                                30          290.28 Pattern_23                 ;
 24                                30          227.78 Pattern_24                 ;
 25                                30           47.22 Pattern_25                 ;
 26                                30             250 Pattern_26                 ;
 27                                30          102.78 Pattern_27                 ;
 28                                30           80.56 Pattern_28                 ;
 29                                30             100 Pattern_29                 ;
 30                                30             100 Pattern_30                 ;
 31                                30           29.17 Pattern_31                 ;
 32                                30          223.61 Pattern_32                 ;

[RESERVOIRS]
;ID                                   Head                  Pattern
 1                                100                            ;

[TANKS]
;ID                              Elevation           Init Level            Min Level            Max Level             Diameter           Min Volume Volume Curve         Overflow            

[PIPES]
;ID                   Node1                Node2                              Length             Diameter            Roughness           Minor Loss               Status
 1                    1                    2                                100            1016             130               0                 Open   ;
 2                    2                    3                               1350            1016             130               0                 Open   ;
 3                    3                    4                                900            1016             130               0                 Open   ;
 4                    4                    5                               1150            1016             130               0                 Open   ;
 5                    5                    6                               1450            1016             130               0                 Open   ;
 6                    6                    7                                450            1016             130               0                 Open   ;
 7                    7                    8                                850            1016             130               0                 Open   ;
 8                    8                    9                                850            1016             130               0                 Open   ;
 9                    9                    10                               800            1016             130               0                 Open   ;
 10                   10                   11                               950             762             130               0                 Open   ;
 11                   11                   12                              1200             762             130               0                 Open   ;
 12                   12                   13                              3500           609.6             130               0                 Open   ;
 13                   10                   14                               800           406.4             130               0                 Open   ;
 14                   14                   15                               500           406.4             130               0                 Open   ;
 15                   15                   16                               550           304.8             130               0                 Open   ;
 16                   17                   16                              2730           406.4             130               0                 Open   ;
 17                   17                   18                              1750             508             130               0                 Open   ;
 18                   18                   19                               800           609.6             130               0                 Open   ;
 19                   19                   3                                400           609.6             130               0                 Open   ;
 20                   3                    20                              2200            1016             130               0                 Open   ;
 21                   20                   21                              1500             508             130               0                 Open   ;
 22                   21                   22                               500           304.8             130               0                 Open   ;
 23                   20                   23                              2650            1016             130               0                 Open   ;
 24                   23                   24                              1230             762             130               0                 Open   ;
 25                   24                   25                              1300             762             130               0                 Open   ;
 26                   26                   25                               850             508             130               0                 Open   ;
 27                   27                   26                               300           304.8             130               0                 Open   ;
 28                   16                   27                               750           304.8             130               0                 Open   ;
 29                   23                   28                              1500           406.4             130               0                 Open   ;
 30                   28                   29                              2000           406.4             130               0                 Open   ;
 31                   29                   30                              1600           304.8             130               0                 Open   ;
 32                   30                   31                               150           304.8             130               0                 Open   ;
 33                   32                   31                               860           406.4             130               0                 Open   ;
 34                   25                   32                               950             508             130               0                 Open   ;

[PUMPS]
;ID                   Node1                Node2                Properties          

[VALVES]
;ID                   Node1                Node2                            Diameter Type              Setting           Minor Loss

[TAGS]
;type      name       tag       

[DEMANDS]
;ID        Demand     Pattern   

[STATUS]
;ID        Setting   

[PATTERNS]
;ID        Multipliers

Pattern_2 0.862076 0.747492 0.669254 0.603453 0.645683 0.559072
Pattern_2 0.515716 0.503319 0.536550 0.588297 0.608328 0.636814
Pattern_2 0.692232 0.720202 0.792222 0.895463 0.943382 0.990494
Pattern_2 1.150839 1.147849 1.250398 1.345431 1.282205 1.253066
Pattern_2 1.404107 1.254620 1.275795 1.223230 1.203578 1.268450
Pattern_2 1.196297 1.090959 1.052519 1.105699 1.157313 1.126023
Pattern_2 1.228982 1.219460 1.234963 1.258331 1.344634 1.124018
Pattern_2 1.121945 1.140959 1.175426 1.007229 0.936816 0.818830
Pattern_2 0.765977 0.651280 0.648002 0.573048 0.504672 0.474820
Pattern_2 0.453319 0.477451 0.526192 0.650724 0.662311 0.790213
Pattern_2 0.858857 1.082300 1.131492 1.234662 1.410487 1.398607
Pattern_2 1.479867 1.662901 1.688553 1.615311 1.528516 1.415156
Pattern_2 1.437234 1.428504 1.385038 1.234177 1.198713 1.201947
Pattern_2 1.164508 1.032380 1.141394 1.121192 1.168869 1.140295
Pattern_2 1.254728 1.453370 1.337171 1.277944 1.375951 1.424389
Pattern_2 1.429183 1.254412 1.183880 1.117184 1.006893 1.025574
Pattern_2 0.908231 0.755141 0.651700 0.538798 0.521803 0.542901
Pattern_2 0.458269 0.493574 0.556667 0.596446 0.738177 0.773191
Pattern_2 0.959370 1.001161 1.162887 1.248417 1.403605 1.312557
Pattern_2 1.475747 1.497740 1.587957 1.508282 1.480469 1.547244
Pattern_2 1.340248 1.345413 1.286481 1.307879 1.341965 1.198069
Pattern_2 1.172336 1.207833 1.107596 1.218903 1.181715 1.259387
Pattern_2 1.336353 1.435357 1.450801 1.371627 1.494764 1.385959
Pattern_2 1.409460 1.387068 1.282495 1.053796 0.979527 0.925522
Pattern_2 0.822884 0.794572 0.641780 0.545829 0.486419 0.497854
Pattern_2 0.522895 0.534166 0.620429 0.586984 0.805089 0.831872
Pattern_2 1.026243 1.051523 1.132637 1.293999 1.422156 1.374074
Pattern_2 1.515682 1.485474 1.551285 1.528339 1.489765 1.495828
Pattern_2 1.580419 1.375223 1.394219 1.421245 1.338783 1.266317
Pattern_2 1.293611 1.327390 1.132300 1.180446 1.354231 1.307992
Pattern_2 1.357621 1.291317 1.465120 1.458980 1.496275 1.251682
Pattern_2 1.235749 1.170912 1.283748 1.194682 1.119184 0.901916
Pattern_2 0.875413 0.766383 0.596963 0.549147 0.501930 0.447861
Pattern_2 0.500217 0.513628 0.608765 0.657016 0.757777 0.794291
Pattern_2 0.958064 1.155993 1.186681 1.342631 1.317312 1.367545
Pattern_2 1.559473 1.453042 1.459855 1.559821 1.591510 1.406977
Pattern_2 1.443030 1.352753 1.343495 1.356251 1.212416 1.239656
Pattern_2 1.204147 1.144304 1.277876 1.197709 1.265903 1.268549
Pattern_2 1.323071 1.460973 1.525704 1.415773 1.410917 1.393314
Pattern_2 1.349984 1.317741 1.125039 1.132110 1.103499 0.897951
Pattern_2 0.869197 0.797825 0.695527 0.621967 0.525108 0.529015
Pattern_2 0.576835 0.538345 0.672199 0.692364 0.778044 0.887452
Pattern_2 1.086641 1.159561 1.362166 1.528171 1.545961 1.676985
Pattern_2 1.687313 1.812315 1.680731 1.655081 1.473837 1.505893
Pattern_2 1.667916 1.587808 1.384752 1.359516 1.314347 1.337458
Pattern_2 1.232619 1.188905 1.271204 1.358219 1.221685 1.334633
Pattern_2 1.368069 1.370039 1.431919 1.460278 1.306859 1.394587
Pattern_2 1.305478 1.288040 1.122248 1.149071 1.061224 0.969943
Pattern_2 0.847161 0.813898 0.763007 0.689889 0.540546 0.562428
Pattern_2 0.568086 0.585418 0.582672 0.606540 0.668338 0.785950
Pattern_2 0.770871 0.922418 1.075179 1.077266 1.248791 1.215914
Pattern_2 1.440534 1.453522 1.333851 1.345146 1.483706 1.406022
Pattern_2 1.343457 1.445981 1.274053 1.225583 1.290470 1.321524
Pattern_2 1.380703 1.257802 1.348272 1.283463 1.291743 1.276900
Pattern_2 1.440852 1.271175 1.307436 1.327770 1.286877 1.342738
Pattern_2 1.133794 1.216861 1.004965 1.105782 0.986318 0.816127
Pattern_2 0.891883 0.682125 0.728355 0.691642 0.619304 0.655092
Pattern_2 0.557602 0.553550 0.590072 0.512511 0.564592 0.637491
Pattern_2 0.674595 0.717005 0.817078 1.028563 1.042366 1.096548
Pattern_2 1.148371 1.212121 1.188823 1.416393 1.369428 1.352550
Pattern_2 1.364689 1.335339 1.235154 1.167680 1.351923 1.219517
Pattern_2 1.245519 1.156148 1.072528 1.254227 1.224393 1.250492
Pattern_2 1.175337 1.268581 1.291893 1.289251 1.266412 1.108933
Pattern_2 1.270696 1.282967 1.177888 1.043688 0.955415 0.980388
Pattern_2 0.796935 0.682383 0.616818 0.564007 0.511289 0.444499
Pattern_2 0.465880 0.537507 0.591185 0.658902 0.766504 0.788608
Pattern_2 0.942467 1.034239 1.167162 1.349412 1.477317 1.335522
Pattern_2 1.506472 1.597719 1.645685 1.662637 1.538083 1.575171
Pattern_2 1.524374 1.240503 1.373799 1.243532 1.253927 1.217462
Pattern_2 1.047863 1.171431 1.162894 1.040121 1.112431 1.265022
Pattern_2 1.276828 1.323147 1.322685 1.371818 1.488277 1.477379
Pattern_2 1.382027 1.363730 1.236430 1.110315 0.970555 0.873699
Pattern_2 0.797503 0.729712 0.632140 0.570802 0.518985 0.498345
Pattern_2 0.489623 0.540189 0.587557 0.646989 0.761109 0.794338
Pattern_2 0.935736 1.092076 1.237117 1.306851 1.388155 1.525630
Pattern_2 1.450755 1.769548 1.398190 1.650789 1.575630 1.582120
Pattern_2 1.384655 1.326436 1.320701 1.185673 1.125787 1.113118
Pattern_2 1.278687 1.170398 1.170171 1.275236 1.315306 1.357653
Pattern_2 1.371261 1.401710 1.500350 1.464805 1.598205 1.360590
Pattern_2 1.365515 1.358045 1.164276 1.203543 1.049502 0.884728
Pattern_2 0.797113 0.740889 0.644671 0.576938 0.497466 0.463064
Pattern_2 0.503473 0.552827 0.646265 0.719310 0.747593 0.914286
Pattern_2 1.033037 1.130473 1.253759 1.335846 1.355607 1.386412
Pattern_2 1.402863 1.466439 1.495403 1.497455 1.528317 1.526694
Pattern_2 1.401855 1.463860 1.317921 1.255508 1.395935 1.249976
Pattern_2 1.316468 1.363464 1.265418 1.357027 1.199553 1.345546
Pattern_2 1.316315 1.387486 1.405790 1.370904 1.501317 1.404984
Pattern_2 1.436924 1.347644 1.286504 1.190145 1.100896 0.973821
Pattern_2 0.875920 0.741180 0.696914 0.655614 0.513926 0.543298
Pattern_2 0.503080 0.508746 0.632248 0.661895 0.752600 0.907474
Pattern_2 1.024371 1.173953 1.282300 1.352753 1.472369 1.440040
Pattern_2 1.574755 1.540471 1.534829 1.580891 1.486815 1.538496
Pattern_2 1.482913 1.292192 1.270770 1.323376 1.105783 1.200237
Pattern_2 1.175942 1.181428 1.150645 1.219452 1.242109 1.320889
Pattern_2 1.423118 1.516444 1.490706 1.344892 1.523955 1.413037
Pattern_2 1.398388 1.198655 1.323369 1.091997 1.100631 1.005654
Pattern_2 0.882232 0.753834 0.663749 0.640685 0.510607 0.507720
Pattern_2 0.507491 0.598574 0.575916 0.716137 0.819488 0.994162
Pattern_2 1.045805 1.232196 1.409951 1.553361 1.594354 1.715948
Pattern_2 1.798241 1.907625 1.765263 1.698937 1.833487 1.513615
Pattern_2 1.564902 1.519617 1.434544 1.318923 1.319324 1.290626
Pattern_2 1.244241 1.304429 1.301059 1.320411 1.261014 1.367494
Pattern_2 1.330965 1.282966 1.385082 1.342659 1.421153 1.442040
Pattern_2 1.336882 1.151793 1.252783 1.031479 1.003924 1.053712
Pattern_2 0.914874 0.851828 0.763455 0.697236 0.603038 0.635994
Pattern_2 0.598876 0.529322 0.534339 0.586395 0.694609 0.679902
Pattern_2 0.820068 0.939619 1.092321 1.096586 1.079324 1.423826
Pattern_2 1.431597 1.424741 1.516222 1.480619 1.461049 1.519253
Pattern_2 1.472442 1.378118 1.400680 1.463880 1.328200 1.294396
Pattern_2 1.396083 1.351315 1.409586 1.419767 1.340042 1.383752
Pattern_2 1.393027 1.378012 1.449931 1.252684 1.274904 1.273684
Pattern_2 1.187851 1.118622 1.049898 1.118856 0.948392 0.857407
Pattern_2 0.855404

Pattern_3 0.714110 0.737218 0.664503 0.637582 0.595162 0.542183
Pattern_3 0.522479 0.490252 0.546083 0.565895 0.535109 0.591911
Pattern_3 0.677708 0.719336 0.739137 0.878587 0.974501 0.988883
Pattern_3 1.085941 1.086670 1.363612 1.302785 1.345192 1.349280
Pattern_3 1.320028 1.348794 1.330237 1.332062 1.310699 1.167277
Pattern_3 1.155528 1.219524 1.186946 1.210973 1.145610 1.219557
Pattern_3 1.253346 1.304972 1.255879 1.316264 1.177894 1.300719
Pattern_3 1.130096 1.138409 1.090360 1.131088 0.931199 0.847369
Pattern_3 0.786493 0.674125 0.594139 0.573469 0.490531 0.501117
Pattern_3 0.496962 0.500086 0.540271 0.553931 0.693382 0.773688
Pattern_3 0.902712 1.027175 1.175447 1.410019 1.350444 1.538086
Pattern_3 1.606515 1.702322 1.714885 1.585313 1.468959 1.521362
Pattern_3 1.492913 1.334539 1.296643 1.257469 1.204214 1.170216
Pattern_3 1.147839 1.074522 1.139807 1.124446 1.213981 1.218946
Pattern_3 1.119476 1.138077 1.316663 1.267208 1.430352 1.332834
Pattern_3 1.313222 1.304687 1.132331 1.014077 0.983625 0.896998
Pattern_3 0.792405 0.698783 0.631682 0.557102 0.509438 0.494688
Pattern_3 0.528551 0.547718 0.562536 0.679991 0.741318 0.803572
Pattern_3 0.934486 1.005937 1.063922 1.217447 1.372715 1.363691
Pattern_3 1.575781 1.618093 1.526617 1.733996 1.676090 1.491673
Pattern_3 1.373503 1.418461 1.501105 1.248648 1.261069 1.277299
Pattern_3 1.221298 1.097760 1.069336 1.207675 1.207798 1.231159
Pattern_3 1.303641 1.397437 1.350532 1.393942 1.481447 1.421233
Pattern_3 1.194743 1.237467 1.230224 1.144561 0.975537 0.875604
Pattern_3 0.784074 0.710262 0.634310 0.575416 0.523990 0.528474
Pattern_3 0.484562 0.508535 0.591958 0.699827 0.819448 0.929918
Pattern_3 1.015497 1.172852 1.162256 1.381436 1.262994 1.420100
Pattern_3 1.440206 1.700163 1.579793 1.446052 1.498119 1.605723
Pattern_3 1.420775 1.477251 1.268206 1.235489 1.262248 1.176719
Pattern_3 1.250786 1.228792 1.318133 1.232819 1.286338 1.246644
Pattern_3 1.245513 1.295619 1.353059 1.258428 1.336228 1.375046
Pattern_3 1.313526 1.284332 1.255978 1.083697 0.975696 0.951699
Pattern_3 0.762114 0.762048 0.668354 0.601243 0.480176 0.510217
Pattern_3 0.520083 0.572004 0.556643 0.651714 0.738182 0.867058
Pattern_3 1.076188 1.154599 1.233668 1.426156 1.406809 1.517465
Pattern_3 1.438841 1.579225 1.532635 1.502512 1.639372 1.586369
Pattern_3 1.464167 1.331568 1.403957 1.350275 1.348203 1.193018
Pattern_3 1.196590 1.209192 1.265638 1.201261 1.210125 1.170972
Pattern_3 1.364407 1.366667 1.250389 1.477141 1.311922 1.339175
Pattern_3 1.358439 1.279275 1.165091 1.100773 1.064329 0.936917
Pattern_3 0.990204 0.806887 0.699573 0.602778 0.528280 0.543957
Pattern_3 0.508277 0.571268 0.591486 0.688717 0.884031 0.930976
Pattern_3 1.182763 1.223506 1.374159 1.536021 1.625971 1.771571
Pattern_3 1.785647 1.732081 1.820399 1.850836 1.609901 1.495990
Pattern_3 1.511301 1.475449 1.395997 1.424272 1.309965 1.280726
Pattern_3 1.407804 1.283228 1.250231 1.276706 1.389721 1.345274
Pattern_3 1.277918 1.216814 1.391403 1.249467 1.410343 1.288650
Pattern_3 1.228592 1.194701 1.240819 1.181651 1.032975 0.908523
Pattern_3 0.931015 0.854443 0.760932 0.713793 0.591439 0.563109
Pattern_3 0.562773 0.581095 0.572344 0.617043 0.619061 0.727626
Pattern_3 0.764035 0.949390 1.017276 1.079440 1.130824 1.201683
Pattern_3 1.399239 1.410901 1.470182 1.511685 1.595007 1.401697
Pattern_3 1.402389 1.377169 1.374471 1.326942 1.370599 1.256530
Pattern_3 1.362065 1.299517 1.233238 1.362493 1.192452 1.270171
Pattern_3 1.308553 1.298350 1.315599 1.274168 1.249958 1.154175
Pattern_3 1.101866 1.204448 0.976283 1.016415 0.933537 0.913158
Pattern_3 0.806117 0.715996 0.697919 0.607393 0.611452 0.563175
Pattern_3 0.534490 0.534487 0.556675 0.559515 0.572862 0.675305
Pattern_3 0.658366 0.713219 0.883232 0.972920 0.955364 1.066332
Pattern_3 1.180974 1.185489 1.297813 1.484651 1.390292 1.364774
Pattern_3 1.357547 1.429097 1.223328 1.199990 1.271218 1.187699
Pattern_3 1.286219 1.196659 1.189276 1.162435 1.145083 1.256885
Pattern_3 1.228667 1.332928 1.235355 1.255737 1.357214 1.264811
Pattern_3 1.164802 1.136502 1.118224 1.085973 0.985487 0.779977
Pattern_3 0.782828 0.704930 0.568926 0.554148 0.505201 0.467114
Pattern_3 0.498721 0.544208 0.631582 0.646584 0.695551 0.880617
Pattern_3 0.948544 1.069023 1.183183 1.329402 1.412120 1.503300
Pattern_3 1.644589 1.564989 1.601176 1.620048 1.773577 1.545635
Pattern_3 1.639617 1.457169 1.331347 1.417711 1.294220 1.123762
Pattern_3 1.129767 1.070975 1.106132 1.148283 1.181372 1.350109
Pattern_3 1.410549 1.254466 1.297153 1.384664 1.401976 1.371134
Pattern_3 1.403282 1.249406 1.170422 1.200869 1.023998 0.897065
Pattern_3 0.808516 0.777526 0.613599 0.509596 0.560030 0.489263
Pattern_3 0.491277 0.522913 0.571045 0.672020 0.781001 0.843005
Pattern_3 0.914009 1.097257 1.292732 1.229309 1.446474 1.477829
Pattern_3 1.512245 1.582294 1.559305 1.599826 1.585738 1.503061
Pattern_3 1.510726 1.414770 1.287830 1.303825 1.207282 1.197216
Pattern_3 1.139070 1.178132 1.114867 1.102424 1.327055 1.328103
Pattern_3 1.251491 1.326550 1.341464 1.355661 1.516294 1.413203
Pattern_3 1.518497 1.285854 1.327958 1.090413 1.022088 0.970892
Pattern_3 0.828963 0.751893 0.589168 0.566826 0.555802 0.494021
Pattern_3 0.567506 0.533147 0.621288 0.718801 0.736821 0.875786
Pattern_3 0.949984 1.115241 1.244585 1.279348 1.413443 1.562926
Pattern_3 1.442959 1.482588 1.615441 1.631685 1.644983 1.533266
Pattern_3 1.440450 1.440279 1.482178 1.315506 1.441542 1.340023
Pattern_3 1.254240 1.304778 1.370944 1.272524 1.290031 1.298663
Pattern_3 1.435587 1.341292 1.170536 1.427972 1.406440 1.305466
Pattern_3 1.552429 1.321459 1.154015 1.087744 1.005499 0.973551
Pattern_3 0.883362 0.691688 0.712840 0.600456 0.526449 0.512140
Pattern_3 0.469887 0.566156 0.574805 0.724933 0.786680 0.796756
Pattern_3 1.062828 1.133273 1.263957 1.265985 1.414189 1.542246
Pattern_3 1.774567 1.528451 1.541337 1.524620 1.563852 1.575885
Pattern_3 1.444623 1.521277 1.376971 1.289612 1.429556 1.288267
Pattern_3 1.263501 1.264574 1.249426 1.156010 1.370512 1.287521
Pattern_3 1.346822 1.438662 1.350082 1.367416 1.351649 1.381456
Pattern_3 1.368904 1.221894 1.412481 1.203446 1.041372 0.899833
Pattern_3 0.796295 0.795686 0.674015 0.649795 0.564332 0.468596
Pattern_3 0.517704 0.624337 0.686776 0.723347 0.890353 0.962193
Pattern_3 1.028581 1.291509 1.444129 1.499725 1.618452 1.627103
Pattern_3 1.806554 1.782333 1.668756 1.722923 1.759431 1.632128
Pattern_3 1.560316 1.531980 1.392097 1.408520 1.336706 1.426237
Pattern_3 1.379651 1.225671 1.320203 1.212090 1.211263 1.380525
Pattern_3 1.406978 1.214622 1.631412 1.473417 1.448586 1.372888
Pattern_3 1.209507 1.269597 1.220390 1.064163 1.122758 0.938475
Pattern_3 0.906679 0.756643 0.766892 0.678008 0.671174 0.618109
Pattern_3 0.562800 0.554816 0.570328 0.594320 0.682892 0.753010
Pattern_3 0.846361 0.953999 1.053632 1.125229 1.324964 1.411324
Pattern_3 1.413252 1.598338 1.554691 1.599736 1.581302 1.611324
Pattern_3 1.516370 1.322166 1.414984 1.392772 1.372529 1.361676
Pattern_3 1.297537 1.297440 1.334862 1.358553 1.351230 1.312427
Pattern_3 1.368759 1.312083 1.326426 1.417678 1.289985 1.203852
Pattern_3 1.228223 1.208195 1.038467 1.087002 0.889997 0.908979
Pattern_3 0.792868

Pattern_4 0.831072 0.735149 0.765491 0.636490 0.646788 0.643302
Pattern_4 0.644302 0.569176 0.563688 0.530701 0.560043 0.591535
Pattern_4 0.642304 0.756591 0.803209 0.792156 0.970114 1.020055
Pattern_4 1.118271 1.269016 1.279564 1.252646 1.295923 1.168372
Pattern_4 1.322947 1.294253 1.212334 1.219048 1.238544 1.301528
Pattern_4 1.143654 1.037095 1.055064 1.182492 1.148575 1.154052
Pattern_4 1.233987 1.292275 1.184222 1.191219 1.327898 1.271784
Pattern_4 1.284083 1.317053 1.149628 1.010678 0.951670 0.939521
Pattern_4 0.844841 0.800522 0.678959 0.568380 0.579328 0.522572
Pattern_4 0.519803 0.536421 0.602925 0.640230 0.708320 0.864506
Pattern_4 0.926146 0.997750 1.158783 1.310308 1.391766 1.462539
Pattern_4 1.615528 1.497506 1.570366 1.545480 1.536128 1.553551
Pattern_4 1.439694 1.405219 1.391233 1.145472 1.183577 1.088274
Pattern_4 1.033373 1.113078 1.060546 1.043123 1.081223 1.077189
Pattern_4 1.307259 1.199408 1.286796 1.272310 1.368708 1.321327
Pattern_4 1.255322 1.326577 1.275701 1.158321 0.956580 0.972795
Pattern_4 0.861608 0.714673 0.700595 0.582596 0.532873 0.579951
Pattern_4 0.558427 0.531199 0.664891 0.613525 0.816198 0.882998
Pattern_4 0.948835 1.131486 1.129532 1.205136 1.233786 1.461098
Pattern_4 1.346098 1.470564 1.479691 1.490996 1.599156 1.267849
Pattern_4 1.402021 1.282705 1.198073 1.162339 1.198234 1.128296
Pattern_4 1.170143 1.161792 1.124398 1.103950 1.154919 1.245504
Pattern_4 1.248027 1.247717 1.330896 1.395599 1.393739 1.311363
Pattern_4 1.445881 1.279499 1.135625 1.086384 1.101607 0.942379
Pattern_4 0.774187 0.708366 0.668080 0.661244 0.515603 0.576988
Pattern_4 0.521106 0.577048 0.615354 0.698205 0.739844 0.919507
Pattern_4 1.054284 1.043087 1.188950 1.165145 1.326966 1.507525
Pattern_4 1.522565 1.573725 1.562352 1.424315 1.585995 1.409913
Pattern_4 1.358672 1.427907 1.406302 1.308938 1.349026 1.259822
Pattern_4 1.065188 1.176481 1.119868 1.181308 1.141505 1.252958
Pattern_4 1.304546 1.315281 1.295274 1.387934 1.415630 1.402766
Pattern_4 1.371291 1.312269 1.264490 1.139703 1.069390 0.988909
Pattern_4 0.877641 0.792283 0.641141 0.653385 0.590436 0.490137
Pattern_4 0.538355 0.578944 0.636407 0.697950 0.816597 0.894377
Pattern_4 1.002912 1.119930 1.195490 1.327140 1.399287 1.425560
Pattern_4 1.425686 1.454241 1.560933 1.568952 1.505668 1.376442
Pattern_4 1.307038 1.342848 1.363104 1.249277 1.193301 1.216315
Pattern_4 1.279398 1.116728 1.052942 1.296635 1.270332 1.285937
Pattern_4 1.400223 1.419850 1.346384 1.381531 1.465987 1.368811
Pattern_4 1.472205 1.190319 1.203565 1.204465 1.045903 0.974396
Pattern_4 0.940286 0.850338 0.720316 0.638009 0.606708 0.621104
Pattern_4 0.516977 0.579701 0.615775 0.740471 0.852413 0.980444
Pattern_4 1.147427 1.270637 1.375508 1.440026 1.701249 1.618506
Pattern_4 1.555980 1.567110 1.773981 1.674663 1.523299 1.585073
Pattern_4 1.420855 1.507851 1.336603 1.320619 1.436901 1.267210
Pattern_4 1.299087 1.230643 1.227452 1.338268 1.269601 1.310491
Pattern_4 1.363031 1.385286 1.310011 1.420325 1.319703 1.323034
Pattern_4 1.326316 1.301222 1.159170 1.068338 1.108578 1.050320
Pattern_4 0.938957 0.872937 0.774660 0.664877 0.655492 0.648908
Pattern_4 0.570940 0.589534 0.602362 0.612562 0.664265 0.742914
Pattern_4 0.825705 0.914209 0.985494 1.081972 1.175704 1.405028
Pattern_4 1.366912 1.448985 1.437567 1.328462 1.475557 1.331886
Pattern_4 1.402343 1.279024 1.403370 1.345765 1.236173 1.262395
Pattern_4 1.112662 1.234591 1.355821 1.188125 1.245170 1.285338
Pattern_4 1.418469 1.371991 1.354262 1.278712 1.345636 1.211409
Pattern_4 1.218573 1.168717 1.082187 1.196135 0.993067 0.819280
Pattern_4 0.889414 0.757645 0.683088 0.698152 0.657897 0.551895
Pattern_4 0.594490 0.581461 0.538881 0.605726 0.609758 0.627528
Pattern_4 0.743412 0.761619 0.841931 0.868485 0.975122 1.105886
Pattern_4 1.189575 1.218049 1.285501 1.410895 1.251841 1.380472
Pattern_4 1.389755 1.235335 1.225865 1.305757 1.198989 1.148379
Pattern_4 1.190960 1.165764 1.169648 1.228253 1.086778 1.161291
Pattern_4 1.071662 1.324668 1.259414 1.278583 1.339143 1.384875
Pattern_4 1.171750 1.199858 1.111423 1.159152 0.987198 0.923012
Pattern_4 0.811583 0.758217 0.569786 0.601789 0.585742 0.514155
Pattern_4 0.545947 0.564895 0.617259 0.697537 0.805171 0.786754
Pattern_4 1.022599 1.047016 1.301744 1.483669 1.379430 1.563812
Pattern_4 1.620908 1.556955 1.685668 1.746016 1.518617 1.477952
Pattern_4 1.435190 1.307237 1.326415 1.342747 1.213761 1.281588
Pattern_4 1.087872 1.074529 1.006984 1.040371 1.101167 1.155853
Pattern_4 1.193879 1.219191 1.394421 1.468733 1.408198 1.390332
Pattern_4 1.395885 1.181977 1.228069 1.243262 1.117111 0.869058
Pattern_4 0.883048 0.802500 0.658865 0.630998 0.606431 0.537100
Pattern_4 0.493540 0.512638 0.612413 0.715935 0.780590 0.875748
Pattern_4 1.006612 1.125861 1.106876 1.246606 1.418366 1.598568
Pattern_4 1.434619 1.413670 1.631652 1.601644 1.472063 1.415706
Pattern_4 1.403004 1.338066 1.228854 1.171168 1.227776 1.194760
Pattern_4 1.250768 1.138091 1.181099 1.145409 1.270154 1.419554
Pattern_4 1.358440 1.400523 1.384506 1.427990 1.520306 1.400065
Pattern_4 1.483294 1.356239 1.206639 1.241604 0.926982 0.959869
Pattern_4 0.912898 0.712238 0.677477 0.620653 0.557490 0.525179
Pattern_4 0.608484 0.636245 0.666880 0.735184 0.810776 0.903838
Pattern_4 1.058354 1.155021 1.359587 1.331710 1.498851 1.469257
Pattern_4 1.485078 1.486597 1.567448 1.585718 1.557541 1.392968
Pattern_4 1.418678 1.409298 1.332079 1.296462 1.314710 1.329276
Pattern_4 1.278486 1.158787 1.153897 1.228351 1.262129 1.314754
Pattern_4 1.423908 1.329896 1.427614 1.398249 1.437355 1.398715
Pattern_4 1.306847 1.227759 1.238773 1.132454 1.139127 0.971953
Pattern_4 0.872628 0.814059 0.649852 0.627176 0.553866 0.525602
Pattern_4 0.565017 0.580360 0.613861 0.688478 0.727869 1.011687
Pattern_4 0.974764 1.148745 1.316886 1.472163 1.381806 1.612495
Pattern_4 1.525523 1.695686 1.453089 1.432245 1.564966 1.487992
Pattern_4 1.383643 1.359908 1.328073 1.294686 1.152833 1.133552
Pattern_4 1.134436 1.244921 1.152339 1.287574 1.272095 1.267877
Pattern_4 1.377183 1.270823 1.406966 1.359211 1.377877 1.472099
Pattern_4 1.256133 1.330530 1.221331 1.155757 1.088555 1.044367
Pattern_4 0.901833 0.822070 0.678262 0.635832 0.637768 0.572196
Pattern_4 0.525135 0.601028 0.670229 0.849390 0.923561 1.014727
Pattern_4 1.132713 1.237214 1.325127 1.586513 1.612704 1.653748
Pattern_4 1.804405 1.757097 1.706345 1.757037 1.577036 1.495146
Pattern_4 1.631691 1.455867 1.303734 1.419553 1.343981 1.145033
Pattern_4 1.225902 1.266228 1.330330 1.318496 1.426343 1.373160
Pattern_4 1.367824 1.441411 1.327526 1.378953 1.450716 1.443208
Pattern_4 1.359661 1.286216 1.104675 1.178515 1.075010 0.997566
Pattern_4 0.941502 0.860282 0.781763 0.690669 0.663486 0.654235