; Filename: ../Network_Originals/Hanoi_CMH.inp
; WNTR: 0.4.0
; Created: 2022-11-16 12:23:49
[TITLE]

[JUNCTIONS]
;ID                      Elevation       Demand Pattern                 
 2                                 30          247.22 Pattern_2                  ;
 3                                 30          236.11 Pattern_3                  ;
 4                                 30           36.11 Pattern_4                  ;
 5                                 30          201.39 Pattern_5                  ;
 6                                 30          279.17 Pattern_6                  ;
 7                                 30             375 Pattern_7                  ;
 8                                 30          152.78 Pattern_8                  ;
 9                                 30          145.83 Pattern_9                  ;
 10                                30          145.83 Pattern_10                 ;
 11                                30          138.89 Pattern_11                 ;
 12                                30          155.56 Pattern_12                 ;
 13                                30          261.11 Pattern_13                 ;
 14                                30          170.83 Pattern_14                 ;
 15                                30           77.78 Pattern_15                 ;
 16                                30           86.11 Pattern_16                 ;
 17                                30          240.28 Pattern_17                 ;
 18                                30          373.61 Pattern_18                 ;
 19                                30           16.67 Pattern_19                 ;
 20                                30          354.17 Pattern_20                 ;
 21                                30          258.33 Pattern_21                 ;
 22                                30          134.72 Pattern_22                 ;
 23                                30          290.28 Pattern_23                 ;
 24                                30          227.78 Pattern_24                 ;
 25                                30           47.22 Pattern_25                 ;
 26                                30             250 Pattern_26                 ;
 27                                30          102.78 Pattern_27                 ;
 28                                30           80.56 Pattern_28                 ;
 29                                30             100 Pattern_29                 ;
 30                                30             100 Pattern_30                 ;
 31                                30           29.17 Pattern_31                 ;
 32                                30          223.61 Pattern_32                 ;

[RESERVOIRS]
;ID                                   Head                  Pattern
 1                                100                            ;

[TANKS]
;ID                              Elevation           Init Level            Min Level            Max Level             Diameter           Min Volume Volume Curve         Overflow            

[PIPES]
;ID                   Node1                Node2                              Length             Diameter            Roughness           Minor Loss               Status
 1                    1                    2                                100            1016             130               0                 Open   ;
 2                    2                    3                               1350            1016             130               0                 Open   ;
 3                    3                    4                                900            1016             130               0                 Open   ;
 4                    4                    5                               1150            1016             130               0                 Open   ;
 5                    5                    6                               1450            1016             130               0                 Open   ;
 6                    6                    7                                450            1016             130               0                 Open   ;
 7                    7                    8                                850            1016             130               0                 Open   ;
 8                    8                    9                                850            1016             130               0                 Open   ;
 9                    9                    10                               800            1016             130               0                 Open   ;
 10                   10                   11                               950             762             130               0                 Open   ;
 11                   11                   12                              1200             762             130               0                 Open   ;
 12                   12                   13                              3500           609.6             130               0                 Open   ;
 13                   10                   14                               800           406.4             130               0                 Open   ;
 14                   14                   15                               500           406.4             130               0                 Open   ;
 15                   15                   16                               550           304.8             130               0                 Open   ;
 16                   17                   16                              2730           406.4             130               0                 Open   ;
 17                   17                   18                              1750             508             130               0                 Open   ;
 18                   18                   19                               800           609.6             130               0                 Open   ;
 19                   19                   3                                400           609.6             130               0                 Open   ;
 20                   3                    20                              2200            1016             130               0                 Open   ;
 21                   20                   21                              1500             508             130               0                 Open   ;
 22                   21                   22                               500           304.8             130               0                 Open   ;
 23                   20                   23                              2650            1016             130               0                 Open   ;
 24                   23                   24                              1230             762             130               0                 Open   ;
 25                   24                   25                              1300             762             130               0                 Open   ;
 26                   26                   25                               850             508             130               0                 Open   ;
 27                   27                   26                               300           304.8             130               0                 Open   ;
 28                   16                   27                               750           304.8             130               0                 Open   ;
 29                   23                   28                              1500           406.4             130               0                 Open   ;
 30                   28                   29                              2000           406.4             130               0                 Open   ;
 31                   29                   30                              1600           304.8             130               0                 Open   ;
 32                   30                   31                               150           304.8             130               0                 Open   ;
 33                   32                   31                               860           406.4             130               0                 Open   ;
 34                   25                   32                               950             508             130               0                 Open   ;

[PUMPS]
;ID                   Node1                Node2                Properties          

[VALVES]
;ID                   Node1                Node2                            Diameter Type              Setting           Minor Loss

[TAGS]
;type      name       tag       

[DEMANDS]
;ID        Demand     Pattern   

[STATUS]
;ID        Setting   

[PATTERNS]
;ID        Multipliers

Pattern_2 0.748305 0.677070 0.691451 0.591012 0.558086 0.537918
Pattern_2 0.517517 0.508979 0.504419 0.535422 0.540429 0.565489
Pattern_2 0.645332 0.661698 0.851833 0.844791 0.911517 1.050228
Pattern_2 1.081907 1.095085 1.281872 1.432050 1.339536 1.317625
Pattern_2 1.336367 1.287488 1.344688 1.332790 1.205518 1.158145
Pattern_2 1.122843 1.151298 1.184056 1.020297 1.138513 1.168424
Pattern_2 1.234112 1.225718 1.230323 1.273658 1.250952 1.130531
Pattern_2 1.124080 1.137273 1.181621 1.070996 1.014803 0.821501
Pattern_2 0.732915 0.649804 0.573049 0.500679 0.446530 0.440698
Pattern_2 0.436836 0.452554 0.499535 0.607021 0.680205 0.766802
Pattern_2 0.903592 1.072615 1.296597 1.293949 1.402320 1.466444
Pattern_2 1.622710 1.683293 1.770335 1.674282 1.688283 1.691386
Pattern_2 1.458072 1.561992 1.297293 1.160667 1.229455 1.169949
Pattern_2 1.028279 1.053835 1.040350 1.072633 1.124545 1.220903
Pattern_2 1.242531 1.287354 1.350444 1.432537 1.297011 1.422710
Pattern_2 1.334193 1.346265 1.271419 1.165421 1.084451 0.912674
Pattern_2 0.744440 0.702628 0.613685 0.473545 0.514486 0.405236
Pattern_2 0.471174 0.484757 0.506867 0.595833 0.765150 0.823205
Pattern_2 0.887742 1.105222 1.139801 1.272885 1.402676 1.402617
Pattern_2 1.561049 1.600920 1.554590 1.576749 1.444111 1.512740
Pattern_2 1.374781 1.441736 1.230519 1.245273 1.288536 1.191700
Pattern_2 1.086256 1.168420 1.071468 1.215127 1.178164 1.209149
Pattern_2 1.289900 1.546430 1.251903 1.399220 1.555370 1.528770
Pattern_2 1.308734 1.240698 1.206854 1.255752 0.997186 0.882096
Pattern_2 0.775492 0.641629 0.548488 0.524193 0.447716 0.420867
Pattern_2 0.441670 0.477497 0.546692 0.627858 0.731593 0.886064
Pattern_2 0.971227 0.994800 1.276014 1.342165 1.415745 1.516737
Pattern_2 1.527631 1.527206 1.337035 1.528895 1.468709 1.515659
Pattern_2 1.424340 1.444801 1.432924 1.406566 1.248036 1.256802
Pattern_2 1.137594 1.125594 1.285271 1.269000 1.268249 1.213240
Pattern_2 1.333883 1.258861 1.414733 1.266247 1.429772 1.336703
Pattern_2 1.393111 1.219209 1.239548 1.105839 1.078426 0.949894
Pattern_2 0.791693 0.679592 0.564057 0.495335 0.466182 0.412118
Pattern_2 0.498896 0.488164 0.642368 0.642819 0.801597 0.851728
Pattern_2 0.972392 1.203509 1.318568 1.374614 1.344627 1.390556
Pattern_2 1.460906 1.471489 1.560155 1.529225 1.452284 1.603466
Pattern_2 1.407245 1.195167 1.220432 1.223792 1.238324 1.168440
Pattern_2 1.188495 1.204115 1.241465 1.370053 1.187094 1.355928
Pattern_2 1.408826 1.494855 1.395118 1.472554 1.449443 1.319698
Pattern_2 1.327250 1.257563 1.186556 1.123461 1.057752 0.968209
Pattern_2 0.910444 0.736671 0.681484 0.506399 0.481172 0.507620
Pattern_2 0.500920 0.526066 0.556963 0.672911 0.796439 0.979012
Pattern_2 1.120625 1.273399 1.285956 1.565748 1.549412 1.847989
Pattern_2 1.774595 1.884450 1.632256 1.715591 1.758426 1.603482
Pattern_2 1.438268 1.456361 1.456661 1.361357 1.284140 1.327351
Pattern_2 1.273524 1.220817 1.186257 1.244938 1.247806 1.358974
Pattern_2 1.332571 1.409516 1.409167 1.558174 1.269339 1.286101
Pattern_2 1.342837 1.317920 1.203142 1.086622 1.159234 0.945078
Pattern_2 0.831803 0.769750 0.717322 0.650593 0.591242 0.515725
Pattern_2 0.504320 0.486428 0.513152 0.575783 0.594858 0.685608
Pattern_2 0.761087 0.906670 1.134144 1.056539 1.183501 1.188749
Pattern_2 1.318695 1.385476 1.252699 1.497786 1.567309 1.402393
Pattern_2 1.389282 1.450121 1.281779 1.274541 1.281099 1.310704
Pattern_2 1.263205 1.226356 1.331424 1.326793 1.322910 1.376700
Pattern_2 1.300007 1.366744 1.317871 1.289607 1.314566 1.239915
Pattern_2 1.174622 1.056820 0.993691 0.996183 0.864846 0.877806
Pattern_2 0.793122 0.703880 0.666523 0.594470 0.584500 0.511833
Pattern_2 0.554116 0.480473 0.507433 0.520638 0.523302 0.569960
Pattern_2 0.590869 0.724384 0.870800 0.931548 0.990392 1.068393
Pattern_2 1.190733 1.373638 1.286994 1.386970 1.419530 1.331014
Pattern_2 1.325154 1.340877 1.304783 1.320603 1.159131 1.237286
Pattern_2 1.144257 1.118425 1.105103 1.145627 1.206397 1.183480
Pattern_2 1.216918 1.260011 1.332405 1.346258 1.194056 1.411187
Pattern_2 1.254244 1.274370 1.151815 0.989768 0.963389 0.853577
Pattern_2 0.692268 0.637229 0.530276 0.511577 0.459880 0.427994
Pattern_2 0.471866 0.474549 0.487155 0.630843 0.733474 0.813048
Pattern_2 0.980764 1.046519 1.130864 1.388721 1.359537 1.415364
Pattern_2 1.518414 1.723820 1.545646 1.691768 1.606102 1.685037
Pattern_2 1.399293 1.620153 1.349229 1.208482 1.316730 1.183085
Pattern_2 1.067999 1.066231 1.113492 1.164726 1.230357 1.232939
Pattern_2 1.191111 1.341327 1.445327 1.318060 1.357002 1.340999
Pattern_2 1.374100 1.415229 1.301206 1.200599 0.976235 0.901144
Pattern_2 0.841134 0.702021 0.626791 0.562515 0.490699 0.463889
Pattern_2 0.471585 0.531312 0.561507 0.632142 0.799221 0.878771
Pattern_2 1.071825 1.019540 1.161360 1.377151 1.459233 1.469207
Pattern_2 1.551608 1.707908 1.596697 1.660162 1.640083 1.428253
Pattern_2 1.520371 1.366767 1.379526 1.313812 1.210076 1.212032
Pattern_2 1.109223 1.171222 1.179491 1.195268 1.181878 1.205656
Pattern_2 1.328250 1.521464 1.478838 1.422907 1.549947 1.445022
Pattern_2 1.322853 1.444449 1.361720 1.132291 1.031784 0.992415
Pattern_2 0.772940 0.669917 0.558697 0.542231 0.466796 0.485152
Pattern_2 0.515515 0.481955 0.587655 0.626697 0.781450 0.960750
Pattern_2 0.966093 1.155406 1.210434 1.277266 1.471863 1.585276
Pattern_2 1.519150 1.634005 1.605630 1.560093 1.514114 1.602381
Pattern_2 1.534482 1.479076 1.443692 1.344001 1.257663 1.328857
Pattern_2 1.231206 1.395480 1.188477 1.225128 1.236318 1.284157
Pattern_2 1.491704 1.446387 1.456299 1.368296 1.357769 1.335945
Pattern_2 1.364875 1.232515 1.204416 1.134216 1.068157 0.906651
Pattern_2 0.735679 0.664249 0.573731 0.485911 0.478543 0.463668
Pattern_2 0.457772 0.485649 0.632095 0.717967 0.713191 0.932012
Pattern_2 0.977171 1.045735 1.354589 1.359363 1.497353 1.373486
Pattern_2 1.602249 1.523164 1.279221 1.437240 1.678461 1.397206
Pattern_2 1.425642 1.286465 1.281851 1.304869 1.243527 1.232516
Pattern_2 1.181419 1.144411 1.182794 1.301470 1.269463 1.312742
Pattern_2 1.406188 1.422622 1.472167 1.353986 1.439750 1.279674
Pattern_2 1.382411 1.253356 1.274890 1.229279 1.098587 1.037640
Pattern_2 0.878082 0.702856 0.609518 0.578840 0.496273 0.499720
Pattern_2 0.461124 0.546670 0.603517 0.655764 0.865868 1.068051
Pattern_2 1.200109 1.293638 1.404734 1.588339 1.723959 1.771872
Pattern_2 1.824038 1.933971 1.696702 1.690196 1.858346 1.564981
Pattern_2 1.618482 1.602733 1.358724 1.425690 1.343415 1.293787
Pattern_2 1.314202 1.135481 1.326908 1.277326 1.326352 1.398859
Pattern_2 1.438993 1.402344 1.380325 1.433318 1.363831 1.358079
Pattern_2 1.238915 1.186843 1.131658 1.190213 1.009477 0.985193
Pattern_2 0.895603 0.794698 0.709832 0.628949 0.555198 0.621020
Pattern_2 0.571214 0.478958 0.553575 0.557993 0.667927 0.827575
Pattern_2 0.832916 0.823236 0.992206 1.109395 1.191217 1.286781
Pattern_2 1.354878 1.588645 1.448442 1.535247 1.511593 1.520340
Pattern_2 1.419296 1.320297 1.161493 1.346567 1.463787 1.396027
Pattern_2 1.224131 1.277277 1.320457 1.230432 1.387132 1.461730
Pattern_2 1.232084 1.228729 1.456748 1.399114 1.320771 1.163318
Pattern_2 1.292367 1.104184 1.114386 1.034167 0.932947 0.838427
Pattern_2 0.776872

Pattern_3 0.729097 0.758096 0.649572 0.675689 0.627681 0.610602
Pattern_3 0.529691 0.580757 0.489646 0.583267 0.609992 0.579440
Pattern_3 0.668826 0.770773 0.736950 0.929135 0.868607 1.150419
Pattern_3 1.153710 1.160801 1.186799 1.266364 1.388615 1.400617
Pattern_3 1.347160 1.306268 1.385689 1.365345 1.305772 1.280326
Pattern_3 1.245029 1.217649 1.115455 1.114777 1.185800 1.231074
Pattern_3 1.154123 1.262348 1.141060 1.220163 1.327801 1.209037
Pattern_3 1.247621 1.212335 1.150135 0.958242 0.880701 0.844019
Pattern_3 0.740887 0.676288 0.610796 0.543975 0.542640 0.514768
Pattern_3 0.462510 0.526622 0.571977 0.609955 0.719089 0.821092
Pattern_3 0.878396 1.143762 1.226094 1.277305 1.439470 1.564648
Pattern_3 1.509987 1.708729 1.756958 1.690673 1.597077 1.601655
Pattern_3 1.700194 1.525642 1.309920 1.329361 1.234089 1.236489
Pattern_3 1.227357 1.070539 1.118009 1.172267 1.141594 1.116779
Pattern_3 1.137959 1.199234 1.306748 1.323622 1.354631 1.290279
Pattern_3 1.315233 1.365954 1.241007 1.143193 0.949113 0.876957
Pattern_3 0.846133 0.697945 0.685724 0.556948 0.519001 0.489547
Pattern_3 0.462388 0.517341 0.583869 0.697180 0.771960 0.865388
Pattern_3 0.899177 1.035285 1.261677 1.314389 1.365630 1.469246
Pattern_3 1.400237 1.578396 1.573802 1.484203 1.601258 1.491514
Pattern_3 1.436547 1.320518 1.372447 1.345151 1.229610 1.177571
Pattern_3 1.142650 1.114875 1.240067 1.092939 1.252781 1.165939
Pattern_3 1.394168 1.339037 1.390233 1.397467 1.342276 1.421926
Pattern_3 1.221239 1.298790 1.133571 1.002538 1.050274 0.910343
Pattern_3 0.777248 0.763986 0.641122 0.569641 0.526721 0.496153
Pattern_3 0.472309 0.516821 0.588812 0.696400 0.796871 0.881300
Pattern_3 0.928946 1.125583 1.199666 1.226261 1.460512 1.481010
Pattern_3 1.360342 1.647529 1.741607 1.543942 1.648044 1.442041
Pattern_3 1.470913 1.407607 1.281433 1.312888 1.175378 1.251168
Pattern_3 1.221019 1.303147 1.181394 1.288841 1.224062 1.363520
Pattern_3 1.335581 1.323009 1.359598 1.384867 1.468464 1.316055
Pattern_3 1.336097 1.284118 1.195981 1.097216 1.014156 0.940162
Pattern_3 0.817967 0.697508 0.620063 0.603054 0.517305 0.529777
Pattern_3 0.485136 0.570642 0.579659 0.667377 0.685845 0.830586
Pattern_3 1.023858 1.074195 1.182102 1.173811 1.434476 1.582313
Pattern_3 1.404923 1.582991 1.436978 1.422747 1.449975 1.425476
Pattern_3 1.469355 1.385851 1.287827 1.336359 1.229999 1.253924
Pattern_3 1.301018 1.194010 1.269437 1.328094 1.273703 1.321085
Pattern_3 1.270882 1.272031 1.262023 1.212004 1.369320 1.345627
Pattern_3 1.435170 1.202561 1.168902 1.170498 1.085948 0.979891
Pattern_3 0.831612 0.690589 0.698164 0.533305 0.516736 0.544371
Pattern_3 0.511574 0.560876 0.633900 0.744034 0.922214 1.024746
Pattern_3 1.203517 1.290093 1.366173 1.572089 1.676872 1.759386
Pattern_3 1.756924 1.781448 1.679326 1.842134 1.748773 1.560480
Pattern_3 1.524237 1.381192 1.494988 1.299994 1.475042 1.258816
Pattern_3 1.270627 1.290372 1.239867 1.244411 1.320314 1.400841
Pattern_3 1.269633 1.203131 1.293385 1.399450 1.235937 1.329566
Pattern_3 1.274543 1.229040 1.148154 1.122645 1.011998 0.901277
Pattern_3 0.915546 0.812643 0.756762 0.762787 0.641666 0.622313
Pattern_3 0.541594 0.610374 0.571874 0.598702 0.713104 0.658620
Pattern_3 0.782802 0.894258 0.915050 0.975511 1.295407 1.350230
Pattern_3 1.399489 1.495947 1.383222 1.431717 1.477561 1.525245
Pattern_3 1.568735 1.376194 1.410107 1.403508 1.340559 1.410540
Pattern_3 1.268004 1.315968 1.232262 1.215182 1.308463 1.298108
Pattern_3 1.246492 1.361334 1.234496 1.231052 1.231884 1.178489
Pattern_3 1.279714 1.206644 1.020917 1.008096 0.972726 0.853554
Pattern_3 0.791526 0.754970 0.710405 0.656256 0.620019 0.578819
Pattern_3 0.582936 0.549982 0.580765 0.513087 0.596335 0.619357
Pattern_3 0.680790 0.740070 0.793048 0.806644 1.021164 1.045358
Pattern_3 1.053544 1.296798 1.316476 1.416411 1.316071 1.398519
Pattern_3 1.373264 1.538175 1.374727 1.417549 1.324118 1.191436
Pattern_3 1.221871 1.184680 1.218577 1.082254 1.208717 1.264828
Pattern_3 1.245094 1.138887 1.122453 1.170994 1.176841 1.079362
Pattern_3 1.113466 1.089876 0.950283 1.026195 1.029111 0.840968
Pattern_3 0.671733 0.689493 0.658629 0.562586 0.500148 0.494353
Pattern_3 0.525622 0.539651 0.566340 0.581790 0.714322 0.822691
Pattern_3 0.954003 1.198833 1.187118 1.394709 1.492253 1.646906
Pattern_3 1.551301 1.505849 1.831448 1.601066 1.591477 1.569924
Pattern_3 1.492604 1.485280 1.372433 1.257511 1.198790 1.234258
Pattern_3 1.148379 1.217406 1.219652 1.183598 1.143374 1.151465
Pattern_3 1.293954 1.389535 1.473621 1.341685 1.318892 1.249376
Pattern_3 1.244476 1.253279 1.252508 1.109757 1.048396 0.949549
Pattern_3 0.873878 0.726255 0.650897 0.579220 0.504337 0.485766
Pattern_3 0.478227 0.551568 0.664988 0.638920 0.746113 0.853889
Pattern_3 0.954803 1.052090 1.144486 1.271628 1.494147 1.528149
Pattern_3 1.627177 1.576452 1.491459 1.575790 1.558298 1.474369
Pattern_3 1.392649 1.535133 1.368837 1.305262 1.328343 1.330074
Pattern_3 1.240433 1.139789 1.212968 1.181979 1.253089 1.250708
Pattern_3 1.295451 1.348982 1.424449 1.474215 1.435693 1.405239
Pattern_3 1.292724 1.363862 1.203583 1.045762 1.157553 0.799915
Pattern_3 0.912140 0.698454 0.685975 0.545010 0.520733 0.538012
Pattern_3 0.470788 0.516696 0.626537 0.690460 0.817123 0.902103
Pattern_3 1.019375 1.068097 1.094739 1.431693 1.331688 1.654547
Pattern_3 1.467054 1.607193 1.674967 1.628836 1.566574 1.599432
Pattern_3 1.623490 1.460385 1.455262 1.338166 1.337815 1.288920
Pattern_3 1.279860 1.237720 1.302182 1.241288 1.155430 1.220500
Pattern_3 1.327300 1.337137 1.431696 1.379169 1.311801 1.287290
Pattern_3 1.363839 1.323750 1.266952 1.241689 0.966193 0.972769
Pattern_3 0.879529 0.748573 0.675513 0.616330 0.534086 0.471640
Pattern_3 0.530668 0.540262 0.671976 0.732122 0.800613 0.909998
Pattern_3 1.011235 1.110591 1.313513 1.358826 1.411901 1.603065
Pattern_3 1.574143 1.365879 1.591672 1.614690 1.406424 1.488337
Pattern_3 1.502207 1.292636 1.341441 1.284080 1.307629 1.292304
Pattern_3 1.291349 1.243550 1.261554 1.179814 1.207835 1.230288
Pattern_3 1.160521 1.295668 1.378658 1.460782 1.337411 1.253419
Pattern_3 1.330426 1.203017 1.090461 1.140701 1.086816 0.899246
Pattern_3 0.891311 0.778339 0.674087 0.600742 0.582959 0.592791
Pattern_3 0.559902 0.554934 0.651601 0.735424 0.914941 0.987306
Pattern_3 1.146148 1.342580 1.460465 1.652691 1.787921 1.740293
Pattern_3 1.800270 1.741233 1.891535 1.844883 1.611211 1.831329
Pattern_3 1.629559 1.579077 1.399874 1.500480 1.391957 1.332097
Pattern_3 1.301525 1.391500 1.306835 1.373098 1.284061 1.273305
Pattern_3 1.375011 1.351344 1.226407 1.311165 1.376926 1.295768
Pattern_3 1.221949 1.206610 1.199399 1.078348 1.076265 0.916362
Pattern_3 0.862193 0.879106 0.716051 0.731342 0.600914 0.599725
Pattern_3 0.567820 0.576532 0.601883 0.645129 0.705029 0.712067
Pattern_3 0.807819 0.912514 1.018039 1.170488 1.216328 1.325910
Pattern_3 1.408570 1.443786 1.535677 1.443034 1.489295 1.576234
Pattern_3 1.491033 1.359016 1.529301 1.540513 1.330716 1.363805
Pattern_3 1.431054 1.293382 1.305166 1.292982 1.302737 1.355588
Pattern_3 1.350014 1.308562 1.168479 1.333446 1.231194 1.226538
Pattern_3 1.146557 1.054965 1.031208 1.009023 0.944263 0.887512
Pattern_3 0.783209

Pattern_4 0.720724 0.701276 0.614229 0.604026 0.560153 0.497121
Pattern_4 0.517921 0.490507 0.431246 0.485178 0.515780 0.557306
Pattern_4 0.617123 0.660685 0.701538 0.881322 0.953596 0.979803
Pattern_4 1.079654 1.172069 1.299755 1.293776 1.282888 1.400754
Pattern_4 1.392686 1.204447 1.276402 1.200289 1.270788 1.135547
Pattern_4 1.136474 1.152151 1.241397 1.099537 1.087029 1.219982
Pattern_4 1.325355 1.317735 1.214449 1.306298 1.275685 1.197595
Pattern_4 1.196499 1.175445 1.118000 0.956958 0.889507 0.864155
Pattern_4 0.689704 0.592923 0.488226 0.455120 0.383532 0.412493
Pattern_4 0.406187 0.450133 0.533297 0.580569 0.642249 0.812377
Pattern_4 0.968695 1.040503 1.214495 1.304279 1.370099 1.487841
Pattern_4 1.558707 1.643412 1.571905 1.545538 1.624772 1.527873
Pattern_4 1.568167 1.398846 1.425765 1.196521 1.218713 1.172335
Pattern_4 1.145643 0.924023 1.046419 1.107904 1.213643 1.272231
Pattern_4 1.241687 1.399905 1.245734 1.487114 1.388327 1.195143
Pattern_4 1.364606 1.422026 1.190264 1.172778 1.039994 0.896305
Pattern_4 0.743796 0.692783 0.566183 0.509363 0.441230 0.415931
Pattern_4 0.440297 0.442648 0.532800 0.606198 0.783874 0.776017
Pattern_4 0.918659 1.050665 1.164701 1.335276 1.354665 1.449316
Pattern_4 1.486086 1.512090 1.407643 1.570247 1.568514 1.447005
Pattern_4 1.495052 1.300040 1.321887 1.287644 1.241241 1.309190
Pattern_4 1.135318 1.081324 1.280087 1.266524 1.227464 1.299343
Pattern_4 1.345585 1.408429 1.467112 1.395390 1.381141 1.462965
Pattern_4 1.338334 1.455000 1.182069 1.039784 1.060223 0.852311
Pattern_4 0.819538 0.647606 0.580526 0.453814 0.424828 0.401850
Pattern_4 0.413808 0.467424 0.532103 0.580284 0.727010 0.883834
Pattern_4 0.953011 1.091637 1.310503 1.327713 1.391387 1.439442
Pattern_4 1.611308 1.507291 1.554710 1.485026 1.608386 1.361197
Pattern_4 1.368260 1.489970 1.349480 1.375948 1.391675 1.268270
Pattern_4 1.268983 1.258759 1.335399 1.158589 1.349479 1.219425
Pattern_4 1.285621 1.455032 1.336259 1.420921 1.358963 1.497440
Pattern_4 1.201104 1.344907 1.154910 1.111964 0.968617 0.975885
Pattern_4 0.795167 0.677280 0.622236 0.520339 0.454295 0.442557
Pattern_4 0.424770 0.457515 0.507130 0.599815 0.768031 0.889882
Pattern_4 1.004378 1.077648 1.250540 1.380207 1.326772 1.403368
Pattern_4 1.629170 1.643694 1.599902 1.658070 1.472485 1.558291
Pattern_4 1.408158 1.279842 1.336447 1.359953 1.349788 1.320663
Pattern_4 1.141499 1.278564 1.138098 1.325716 1.293034 1.231210
Pattern_4 1.304288 1.378280 1.394392 1.439480 1.399568 1.384426
Pattern_4 1.308545 1.268979 1.268830 1.140848 1.012538 0.951719
Pattern_4 0.741647 0.682623 0.699018 0.565965 0.512587 0.456293
Pattern_4 0.482466 0.489009 0.577119 0.572133 0.781708 0.948612
Pattern_4 1.098013 1.291437 1.369693 1.439524 1.695991 1.730034
Pattern_4 1.913324 1.696648 1.787139 1.860148 1.586522 1.692620
Pattern_4 1.603191 1.630637 1.453893 1.354177 1.295668 1.315565
Pattern_4 1.234250 1.227161 1.276068 1.243678 1.291191 1.289090
Pattern_4 1.232607 1.321167 1.398541 1.282122 1.292395 1.224300
Pattern_4 1.196913 1.194804 1.169558 1.050282 1.008020 0.959518
Pattern_4 0.877948 0.783129 0.654029 0.638602 0.545141 0.553635
Pattern_4 0.494304 0.510932 0.478938 0.508404 0.577613 0.616794
Pattern_4 0.779030 0.869494 1.026166 1.115735 1.143872 1.239431
Pattern_4 1.401539 1.263251 1.474784 1.479391 1.521673 1.488126
Pattern_4 1.428690 1.412852 1.431303 1.336256 1.290649 1.385526
Pattern_4 1.344791 1.361081 1.338517 1.297537 1.288894 1.428315
Pattern_4 1.364434 1.294754 1.315518 1.351381 1.260815 1.188980
Pattern_4 1.168434 1.125227 1.011706 0.989286 0.937180 0.798566
Pattern_4 0.756162 0.758598 0.636715 0.580604 0.556832 0.540041
Pattern_4 0.492344 0.477103 0.464341 0.490845 0.526355 0.525967
Pattern_4 0.639857 0.661728 0.739790 0.888318 0.984284 1.033159
Pattern_4 1.263650 1.152096 1.227624 1.335151 1.316140 1.353216
Pattern_4 1.326189 1.428639 1.363985 1.192538 1.260516 1.193605
Pattern_4 1.237240 1.147030 1.091538 1.162167 1.226123 1.185413
Pattern_4 1.323390 1.222345 1.319260 1.238874 1.287394 1.367937
Pattern_4 1.343867 1.162706 1.060509 1.054550 0.862470 0.874114
Pattern_4 0.719599 0.623889 0.552341 0.491225 0.426939 0.387010
Pattern_4 0.435796 0.403528 0.480420 0.553322 0.664920 0.776963
Pattern_4 0.906235 1.052182 1.213040 1.310965 1.513100 1.596521
Pattern_4 1.797500 1.727807 1.617644 1.678553 1.766688 1.524154
Pattern_4 1.513743 1.485739 1.254342 1.293522 1.311441 1.057667
Pattern_4 1.157640 1.180572 1.072484 1.106492 1.146881 1.290300
Pattern_4 1.316267 1.304569 1.244208 1.442999 1.378929 1.321133
Pattern_4 1.256717 1.282797 1.256278 1.197095 1.010306 0.931304
Pattern_4 0.802719 0.659055 0.549554 0.458216 0.448636 0.416044
Pattern_4 0.391834 0.472140 0.551367 0.638490 0.665522 0.838570
Pattern_4 0.788044 1.079764 1.122543 1.341638 1.371272 1.488307
Pattern_4 1.564179 1.469216 1.490252 1.589194 1.657618 1.636589
Pattern_4 1.488746 1.430881 1.351501 1.263090 1.222004 1.199737
Pattern_4 1.156729 1.121842 1.196975 1.271131 1.307484 1.319215
Pattern_4 1.315929 1.400768 1.469227 1.455127 1.456660 1.414068
Pattern_4 1.380889 1.342038 1.259121 1.130445 1.036567 0.791927
Pattern_4 0.800843 0.678144 0.586000 0.512460 0.469023 0.440321
Pattern_4 0.474950 0.477844 0.586081 0.617325 0.766379 0.841889
Pattern_4 0.935825 1.165938 1.168369 1.307157 1.335829 1.525228
Pattern_4 1.654338 1.491421 1.577800 1.515098 1.595445 1.543552
Pattern_4 1.595881 1.501479 1.343775 1.357990 1.344232 1.363374
Pattern_4 1.359610 1.234652 1.304152 1.237142 1.213535 1.228265
Pattern_4 1.439847 1.344277 1.501346 1.394849 1.409315 1.427707
Pattern_4 1.457563 1.284030 1.195039 1.047364 0.985289 0.902563
Pattern_4 0.749066 0.664899 0.629298 0.505116 0.485477 0.478452
Pattern_4 0.449773 0.440920 0.592064 0.634173 0.712689 0.874801
Pattern_4 1.003117 1.150123 1.259932 1.361604 1.481068 1.411065
Pattern_4 1.445065 1.586156 1.378700 1.577696 1.658837 1.449279
Pattern_4 1.502174 1.351132 1.318070 1.218578 1.345818 1.212454
Pattern_4 1.195984 1.400840 1.214264 1.303893 1.354244 1.271602
Pattern_4 1.383026 1.376091 1.376345 1.451784 1.491680 1.278817
Pattern_4 1.472488 1.185360 1.153460 1.181556 1.157455 0.993208
Pattern_4 0.916899 0.658515 0.650457 0.549303 0.522611 0.406376
Pattern_4 0.427639 0.530309 0.574738 0.731755 0.816594 0.971749
Pattern_4 1.132576 1.313843 1.442924 1.589044 1.714882 1.936864
Pattern_4 1.843305 1.960834 1.792796 1.798515 1.716823 1.713208
Pattern_4 1.677570 1.532194 1.464957 1.353521 1.356224 1.337392
Pattern_4 1.420730 1.374247 1.377562 1.315794 1.466352 1.392858
Pattern_4 1.382883 1.498498 1.466949 1.474280 1.393760 1.339271
Pattern_4 1.239885 1.247533 1.186070 1.127964 1.017410 1.014475
Pattern_4 0.810601 0.789945 0.741982 0.678996 0.542229 0.517595