; Filename: ../Network_Originals/Hanoi_CMH.inp
; WNTR: 0.4.0
; Created: 2022-11-16 12:31:28
[TITLE]

[JUNCTIONS]
;ID                      Elevation       Demand Pattern                 
 2                                 30          247.22 Pattern_2                  ;
 3                                 30          236.11 Pattern_3                  ;
 4                                 30           36.11 Pattern_4                  ;
 5                                 30          201.39 Pattern_5                  ;
 6                                 30          279.17 Pattern_6                  ;
 7                                 30             375 Pattern_7                  ;
 8                                 30          152.78 Pattern_8                  ;
 9                                 30          145.83 Pattern_9                  ;
 10                                30          145.83 Pattern_10                 ;
 11                                30          138.89 Pattern_11                 ;
 12                                30          155.56 Pattern_12                 ;
 13                                30          261.11 Pattern_13                 ;
 14                                30          170.83 Pattern_14                 ;
 15                                30           77.78 Pattern_15                 ;
 16                                30           86.11 Pattern_16                 ;
 17                                30          240.28 Pattern_17                 ;
 18                                30          373.61 Pattern_18                 ;
 19                                30           16.67 Pattern_19                 ;
 20                                30          354.17 Pattern_20                 ;
 21                                30          258.33 Pattern_21                 ;
 22                                30          134.72 Pattern_22                 ;
 23                                30          290.28 Pattern_23                 ;
 24                                30          227.78 Pattern_24                 ;
 25                                30           47.22 Pattern_25                 ;
 26                                30             250 Pattern_26                 ;
 27                                30          102.78 Pattern_27                 ;
 28                                30           80.56 Pattern_28                 ;
 29                                30             100 Pattern_29                 ;
 30                                30             100 Pattern_30                 ;
 31                                30           29.17 Pattern_31                 ;
 32                                30          223.61 Pattern_32                 ;

[RESERVOIRS]
;ID                                   Head                  Pattern
 1                                100                            ;

[TANKS]
;ID                              Elevation           Init Level            Min Level            Max Level             Diameter           Min Volume Volume Curve         Overflow            

[PIPES]
;ID                   Node1                Node2                              Length             Diameter            Roughness           Minor Loss               Status
 1                    1                    2                                100            1016             130               0                 Open   ;
 2                    2                    3                               1350            1016             130               0                 Open   ;
 3                    3                    4                                900            1016             130               0                 Open   ;
 4                    4                    5                               1150            1016             130               0                 Open   ;
 5                    5                    6                               1450            1016             130               0                 Open   ;
 6                    6                    7                                450            1016             130               0                 Open   ;
 7                    7                    8                                850            1016             130               0                 Open   ;
 8                    8                    9                                850            1016             130               0                 Open   ;
 9                    9                    10                               800            1016             130               0                 Open   ;
 10                   10                   11                               950             762             130               0                 Open   ;
 11                   11                   12                              1200             762             130               0                 Open   ;
 12                   12                   13                              3500           609.6             130               0                 Open   ;
 13                   10                   14                               800           406.4             130               0                 Open   ;
 14                   14                   15                               500           406.4             130               0                 Open   ;
 15                   15                   16                               550           304.8             130               0                 Open   ;
 16                   17                   16                              2730           406.4             130               0                 Open   ;
 17                   17                   18                              1750             508             130               0                 Open   ;
 18                   18                   19                               800           609.6             130               0                 Open   ;
 19                   19                   3                                400           609.6             130               0                 Open   ;
 20                   3                    20                              2200            1016             130               0                 Open   ;
 21                   20                   21                              1500             508             130               0                 Open   ;
 22                   21                   22                               500           304.8             130               0                 Open   ;
 23                   20                   23                              2650            1016             130               0                 Open   ;
 24                   23                   24                              1230             762             130               0                 Open   ;
 25                   24                   25                              1300             762             130               0                 Open   ;
 26                   26                   25                               850             508             130               0                 Open   ;
 27                   27                   26                               300           304.8             130               0                 Open   ;
 28                   16                   27                               750           304.8             130               0                 Open   ;
 29                   23                   28                              1500           406.4             130               0                 Open   ;
 30                   28                   29                              2000           406.4             130               0                 Open   ;
 31                   29                   30                              1600           304.8             130               0                 Open   ;
 32                   30                   31                               150           304.8             130               0                 Open   ;
 33                   32                   31                               860           406.4             130               0                 Open   ;
 34                   25                   32                               950             508             130               0                 Open   ;

[PUMPS]
;ID                   Node1                Node2                Properties          

[VALVES]
;ID                   Node1                Node2                            Diameter Type              Setting           Minor Loss

[TAGS]
;type      name       tag       

[DEMANDS]
;ID        Demand     Pattern   

[STATUS]
;ID        Setting   

[PATTERNS]
;ID        Multipliers

Pattern_2 0.840895 0.802454 0.720492 0.599406 0.652937 0.615557
Pattern_2 0.601440 0.524180 0.608398 0.587727 0.639287 0.602192
Pattern_2 0.692378 0.782156 0.779393 0.937025 1.086266 1.099563
Pattern_2 1.144674 1.201759 1.264632 1.283701 1.271779 1.364512
Pattern_2 1.369560 1.281484 1.134541 1.195346 1.243726 1.108467
Pattern_2 1.021478 1.158574 1.185476 1.135020 1.106389 1.149201
Pattern_2 1.210784 1.060336 1.166594 1.280597 1.302264 1.257274
Pattern_2 1.202033 1.167159 1.177785 0.933679 0.958713 0.881910
Pattern_2 0.738772 0.683542 0.676924 0.552125 0.569231 0.481599
Pattern_2 0.508817 0.545505 0.566977 0.641198 0.746895 0.887402
Pattern_2 0.956496 1.118238 1.240972 1.261704 1.370554 1.353020
Pattern_2 1.705400 1.660466 1.527939 1.351351 1.519583 1.512518
Pattern_2 1.416825 1.282452 1.361003 1.333878 1.240248 1.250629
Pattern_2 1.133207 1.156460 1.115019 1.173704 1.086190 1.153955
Pattern_2 1.193379 1.245476 1.239615 1.299763 1.386577 1.337788
Pattern_2 1.248645 1.244020 1.280861 1.038918 1.049333 1.021195
Pattern_2 0.852564 0.712406 0.669395 0.558577 0.512390 0.516504
Pattern_2 0.539509 0.564238 0.615536 0.698525 0.764470 0.898746
Pattern_2 0.842111 1.118529 1.059003 1.346621 1.448753 1.281119
Pattern_2 1.487313 1.490648 1.463469 1.430709 1.558086 1.444305
Pattern_2 1.434258 1.374885 1.361014 1.193449 1.208357 1.114718
Pattern_2 1.227120 1.195656 1.149083 1.268063 1.144357 1.298475
Pattern_2 1.258775 1.189655 1.405269 1.494151 1.437743 1.249870
Pattern_2 1.289782 1.362494 1.167818 1.029237 1.116746 0.853189
Pattern_2 0.814879 0.700404 0.674356 0.626299 0.542308 0.551656
Pattern_2 0.543180 0.596801 0.609541 0.762752 0.872603 0.958045
Pattern_2 0.999732 1.117116 1.290651 1.162458 1.467958 1.495000
Pattern_2 1.527072 1.453805 1.629429 1.623604 1.586333 1.491325
Pattern_2 1.419997 1.318226 1.375886 1.365166 1.202588 1.280833
Pattern_2 1.255434 1.200466 1.189444 1.209735 1.223649 1.292960
Pattern_2 1.272717 1.362826 1.298707 1.568784 1.322872 1.469583
Pattern_2 1.265624 1.276826 1.214601 1.139248 1.068100 0.924012
Pattern_2 0.809146 0.736265 0.630032 0.616955 0.590816 0.486866
Pattern_2 0.529989 0.559670 0.575507 0.660889 0.739733 0.873300
Pattern_2 1.058642 1.078202 1.164165 1.320621 1.359623 1.470156
Pattern_2 1.389859 1.252351 1.434697 1.593458 1.309441 1.421308
Pattern_2 1.500720 1.364259 1.462934 1.297435 1.171781 1.125080
Pattern_2 1.273460 1.109266 1.225320 1.254918 1.262415 1.287827
Pattern_2 1.220879 1.241868 1.244503 1.411494 1.337732 1.388438
Pattern_2 1.305480 1.317177 1.166967 1.105192 1.025969 0.958180
Pattern_2 0.864350 0.785411 0.713212 0.580193 0.517074 0.573418
Pattern_2 0.606438 0.623279 0.642226 0.728450 0.902253 0.989948
Pattern_2 1.049515 1.266064 1.353817 1.498407 1.532512 1.690764
Pattern_2 1.737231 1.583105 1.704375 1.743452 1.583427 1.538160
Pattern_2 1.318026 1.436342 1.360007 1.365853 1.264956 1.323112
Pattern_2 1.135883 1.280377 1.196104 1.227085 1.254204 1.307524
Pattern_2 1.376859 1.385191 1.448416 1.364442 1.228287 1.263815
Pattern_2 1.293329 1.212964 1.217748 1.143510 1.069338 0.927824
Pattern_2 0.903686 0.809218 0.730812 0.697957 0.606914 0.580614
Pattern_2 0.568452 0.587329 0.641990 0.623064 0.681995 0.775408
Pattern_2 0.851873 1.035827 1.080512 1.163188 1.272593 1.266034
Pattern_2 1.252901 1.377168 1.377278 1.494066 1.325893 1.454746
Pattern_2 1.475052 1.470066 1.293610 1.277193 1.190540 1.298845
Pattern_2 1.328666 1.148179 1.227413 1.465749 1.252226 1.327460
Pattern_2 1.281153 1.380309 1.307890 1.309805 1.283331 1.168216
Pattern_2 1.170807 1.092931 1.098203 0.923226 0.921512 0.812243
Pattern_2 0.810034 0.742282 0.746671 0.623376 0.659002 0.617483
Pattern_2 0.615383 0.585115 0.570917 0.618679 0.616660 0.643314
Pattern_2 0.799355 0.766348 0.841747 0.904302 1.094630 1.124045
Pattern_2 1.168511 1.162314 1.208381 1.329108 1.466545 1.331778
Pattern_2 1.116470 1.244494 1.288829 1.194106 1.189052 1.150119
Pattern_2 1.310980 1.182187 1.152303 1.121410 1.212554 1.162306
Pattern_2 1.161122 1.239033 1.310977 1.277367 1.297667 1.285803
Pattern_2 1.234376 1.116223 1.161751 1.160285 0.964427 0.873158
Pattern_2 0.806981 0.714749 0.626980 0.635546 0.594367 0.556168
Pattern_2 0.543843 0.563499 0.599301 0.644677 0.756178 0.861586
Pattern_2 0.998070 1.176011 1.288084 1.324424 1.356245 1.436780
Pattern_2 1.499336 1.546137 1.706241 1.711806 1.637957 1.358460
Pattern_2 1.434268 1.486000 1.347820 1.246082 1.202646 1.132855
Pattern_2 1.153219 1.131554 1.124423 1.125061 1.262819 1.123307
Pattern_2 1.343664 1.243091 1.319646 1.359531 1.219753 1.342469
Pattern_2 1.373343 1.306472 1.247307 1.211235 1.011974 0.962820
Pattern_2 0.789673 0.739060 0.654741 0.660576 0.519872 0.506185
Pattern_2 0.524750 0.596583 0.691562 0.657306 0.815799 0.862293
Pattern_2 0.966983 1.153162 1.042648 1.344803 1.424901 1.496207
Pattern_2 1.510638 1.481350 1.549627 1.576411 1.400659 1.318319
Pattern_2 1.392351 1.424478 1.250860 1.222406 1.226134 1.209740
Pattern_2 1.157644 1.188072 1.214485 1.227528 1.219981 1.298153
Pattern_2 1.413874 1.431515 1.310674 1.340801 1.356191 1.345427
Pattern_2 1.344777 1.270247 1.191819 1.188182 1.042270 0.844915
Pattern_2 0.849910 0.731182 0.594475 0.573688 0.541025 0.537591
Pattern_2 0.482824 0.627307 0.614423 0.779697 0.815834 0.866883
Pattern_2 1.117402 1.188854 1.237211 1.311470 1.455371 1.509006
Pattern_2 1.556257 1.577514 1.727649 1.557752 1.644008 1.526346
Pattern_2 1.371311 1.452251 1.367730 1.396992 1.309517 1.366181
Pattern_2 1.294024 1.114428 1.198088 1.331141 1.207517 1.338788
Pattern_2 1.303484 1.365311 1.261628 1.403287 1.286629 1.233172
Pattern_2 1.282951 1.196763 1.193118 1.135392 1.005402 0.973205
Pattern_2 0.836948 0.814106 0.650062 0.617835 0.522467 0.527561
Pattern_2 0.540446 0.570312 0.675466 0.714297 0.772917 0.977847
Pattern_2 1.120385 1.180929 1.336736 1.425248 1.444552 1.551927
Pattern_2 1.392227 1.577703 1.487988 1.566365 1.480683 1.366504
Pattern_2 1.460591 1.469282 1.215565 1.158524 1.234860 1.189347
Pattern_2 1.157457 1.147028 1.273619 1.408575 1.268974 1.281439
Pattern_2 1.188415 1.411023 1.349311 1.316176 1.308762 1.476692
Pattern_2 1.321714 1.356044 1.165627 1.128200 1.023178 1.072891
Pattern_2 0.889345 0.736829 0.748977 0.589041 0.570642 0.518086
Pattern_2 0.586944 0.575801 0.599674 0.825149 0.843214 0.996641
Pattern_2 1.087555 1.279638 1.526197 1.610572 1.580604 1.615243
Pattern_2 1.699403 1.642468 1.859100 1.724791 1.665174 1.659298
Pattern_2 1.550394 1.569679 1.323702 1.346651 1.350275 1.353805
Pattern_2 1.218563 1.159079 1.373265 1.265933 1.347480 1.363703
Pattern_2 1.271796 1.226221 1.360296 1.358337 1.323177 1.371877
Pattern_2 1.277597 1.241504 1.145457 1.072439 0.978529 0.912696
Pattern_2 0.856501 0.788928 0.784983 0.723750 0.609218 0.618635
Pattern_2 0.606101 0.563271 0.629887 0.594479 0.758896 0.785842
Pattern_2 0.863537 1.000477 1.045620 1.143362 1.218137 1.244418
Pattern_2 1.329689 1.250601 1.305877 1.279817 1.419035 1.434275
Pattern_2 1.419023 1.333926 1.323109 1.182414 1.261355 1.266316
Pattern_2 1.145243 1.350562 1.328114 1.396219 1.389796 1.390439
Pattern_2 1.321013 1.350842 1.362743 1.294674 1.265522 1.202189
Pattern_2 1.205742 1.082718 1.126135 1.022268 0.912833 0.824709
Pattern_2 0.743683

Pattern_3 0.776357 0.714479 0.666007 0.571208 0.581126 0.521705
Pattern_3 0.493978 0.517053 0.505187 0.535494 0.548095 0.574278
Pattern_3 0.608593 0.693025 0.698928 0.802868 0.993900 1.146684
Pattern_3 1.056771 1.221296 1.304062 1.299373 1.319479 1.204073
Pattern_3 1.311707 1.257690 1.248493 1.206838 1.291703 1.197524
Pattern_3 1.141567 1.173438 1.117724 1.107732 1.204814 1.148059
Pattern_3 1.170417 1.329469 1.309818 1.312772 1.352500 1.122435
Pattern_3 1.351232 1.241899 1.082985 1.042855 0.910201 0.842731
Pattern_3 0.728373 0.559356 0.616090 0.521634 0.479825 0.464104
Pattern_3 0.450942 0.495985 0.488275 0.596148 0.731317 0.764493
Pattern_3 0.926299 1.039682 1.074514 1.283841 1.445763 1.488133
Pattern_3 1.750582 1.462817 1.550954 1.704082 1.614093 1.572918
Pattern_3 1.576817 1.525397 1.299649 1.271200 1.153488 1.139794
Pattern_3 1.174409 1.149050 1.074705 1.099677 1.138194 1.329401
Pattern_3 1.230200 1.220958 1.311314 1.346327 1.398050 1.354546
Pattern_3 1.378683 1.218566 1.104663 1.145274 1.045458 0.852047
Pattern_3 0.764054 0.676679 0.599576 0.553092 0.494689 0.519566
Pattern_3 0.480831 0.456250 0.579414 0.597931 0.722227 0.783090
Pattern_3 0.956448 1.100686 1.188977 1.245352 1.316849 1.411210
Pattern_3 1.477412 1.684763 1.652776 1.593000 1.621647 1.430544
Pattern_3 1.364360 1.408565 1.267763 1.128783 1.052909 1.204081
Pattern_3 1.069416 1.093829 1.156607 1.234533 1.164542 1.198216
Pattern_3 1.346002 1.344193 1.493799 1.447323 1.277106 1.381123
Pattern_3 1.298361 1.311867 1.232788 1.112357 1.015097 0.898714
Pattern_3 0.787172 0.721004 0.607832 0.522742 0.493348 0.501690
Pattern_3 0.479171 0.511303 0.574260 0.692756 0.741013 0.855079
Pattern_3 1.002290 1.151625 1.231149 1.326170 1.427874 1.425571
Pattern_3 1.560466 1.552302 1.573998 1.529034 1.622324 1.501323
Pattern_3 1.351567 1.367647 1.382009 1.292925 1.091921 1.268847
Pattern_3 1.207597 1.299035 1.141159 1.037183 1.239320 1.205351
Pattern_3 1.313456 1.345588 1.485203 1.298489 1.450617 1.329634
Pattern_3 1.285486 1.397636 1.163188 1.098051 0.996111 0.970585
Pattern_3 0.875565 0.653837 0.590785 0.523664 0.498172 0.469529
Pattern_3 0.461893 0.460406 0.594314 0.616715 0.804361 0.823277
Pattern_3 0.937168 1.113215 1.324637 1.305676 1.384099 1.456984
Pattern_3 1.459728 1.544405 1.418500 1.501856 1.400701 1.454923
Pattern_3 1.448228 1.258274 1.291365 1.320844 1.225001 1.126143
Pattern_3 1.267445 1.211211 1.236432 1.265522 1.229248 1.193495
Pattern_3 1.433735 1.262504 1.450989 1.381567 1.407348 1.326888
Pattern_3 1.260772 1.219424 1.194936 1.038092 1.087754 0.953568
Pattern_3 0.826543 0.780093 0.661279 0.542164 0.530065 0.550850
Pattern_3 0.477646 0.535373 0.641175 0.696650 0.812118 0.860644
Pattern_3 1.140145 1.223904 1.365805 1.573052 1.627959 1.742112
Pattern_3 1.740916 1.545141 1.824063 1.671096 1.666023 1.644621
Pattern_3 1.613194 1.591373 1.495713 1.242894 1.328502 1.249292
Pattern_3 1.190281 1.237301 1.245290 1.248666 1.232340 1.409066
Pattern_3 1.314897 1.373806 1.359912 1.284785 1.405235 1.360602
Pattern_3 1.238256 1.185237 1.127112 1.093816 0.931632 1.014371
Pattern_3 0.869097 0.868934 0.753268 0.636464 0.548610 0.550943
Pattern_3 0.491335 0.565950 0.560943 0.620861 0.648461 0.771811
Pattern_3 0.846171 0.931922 1.000427 1.079825 1.401132 1.275682
Pattern_3 1.277018 1.405012 1.337743 1.514106 1.557367 1.324369
Pattern_3 1.529140 1.390856 1.375992 1.285143 1.262038 1.247583
Pattern_3 1.169102 1.300974 1.280846 1.255985 1.396796 1.309256
Pattern_3 1.280068 1.389190 1.315441 1.385837 1.243446 1.113130
Pattern_3 1.149954 1.085783 0.944193 0.997623 0.902130 0.758126
Pattern_3 0.805808 0.736731 0.673511 0.601010 0.535010 0.556940
Pattern_3 0.486840 0.549769 0.530237 0.501087 0.573023 0.625739
Pattern_3 0.622720 0.760956 0.846617 0.950040 0.985666 1.142953
Pattern_3 1.188635 1.243558 1.323067 1.214017 1.252284 1.289516
Pattern_3 1.389789 1.303967 1.328531 1.252712 1.194558 1.152133
Pattern_3 1.254233 1.178451 1.167931 1.147609 1.225475 1.156845
Pattern_3 1.123895 1.205212 1.267618 1.288445 1.434893 1.261205
Pattern_3 1.210163 1.286944 1.146724 1.092588 0.936456 0.868804
Pattern_3 0.753781 0.682741 0.607716 0.543736 0.491364 0.469805
Pattern_3 0.433046 0.500467 0.531688 0.561312 0.769089 0.739903
Pattern_3 0.979720 1.098324 1.187000 1.357524 1.391899 1.585615
Pattern_3 1.662189 1.676582 1.702775 1.615096 1.627192 1.494763
Pattern_3 1.623465 1.344581 1.308178 1.329529 1.273638 1.233093
Pattern_3 1.028827 1.039826 1.121842 1.137730 1.114797 1.164542
Pattern_3 1.324956 1.382040 1.355511 1.404985 1.438155 1.417705
Pattern_3 1.373561 1.390444 1.242412 1.172480 1.104415 0.951113
Pattern_3 0.817125 0.699565 0.656966 0.525985 0.475896 0.498796
Pattern_3 0.453956 0.520072 0.552522 0.612145 0.719133 0.796824
Pattern_3 0.972035 1.123983 1.330851 1.268362 1.440748 1.394384
Pattern_3 1.525191 1.676604 1.581771 1.516575 1.584241 1.607938
Pattern_3 1.412140 1.319722 1.277885 1.216980 1.241358 1.079225
Pattern_3 1.091038 1.134555 1.128028 1.105061 1.289807 1.330039
Pattern_3 1.262722 1.365124 1.533026 1.491761 1.302528 1.429729
Pattern_3 1.411623 1.424487 1.223316 1.137157 0.900998 0.996710
Pattern_3 0.829497 0.725808 0.628734 0.539490 0.475993 0.445252
Pattern_3 0.487539 0.494238 0.649410 0.702825 0.758931 0.962688
Pattern_3 0.961969 1.153848 1.195126 1.406822 1.574150 1.472316
Pattern_3 1.524458 1.711556 1.513053 1.553629 1.459507 1.326446
Pattern_3 1.451299 1.323509 1.351780 1.394801 1.334894 1.240300
Pattern_3 1.227574 1.257597 1.187526 1.283937 1.189952 1.435466
Pattern_3 1.325883 1.512633 1.400377 1.321190 1.445103 1.290435
Pattern_3 1.369976 1.252951 1.222453 1.034064 1.018536 0.923332
Pattern_3 0.863354 0.646024 0.628626 0.545436 0.481647 0.510407
Pattern_3 0.451490 0.545947 0.596377 0.632500 0.818515 0.893756
Pattern_3 1.047679 1.212748 1.216196 1.309967 1.478816 1.571955
Pattern_3 1.601208 1.525729 1.413365 1.589826 1.566004 1.414860
Pattern_3 1.414692 1.331518 1.283084 1.227135 1.117567 1.206571
Pattern_3 1.226347 1.184461 1.168596 1.210540 1.296984 1.358031
Pattern_3 1.337902 1.338344 1.346246 1.420987 1.394093 1.453326
Pattern_3 1.428280 1.352523 1.200355 1.109998 1.037061 1.000278
Pattern_3 0.931920 0.813561 0.648893 0.539107 0.549552 0.500954
Pattern_3 0.522920 0.563727 0.484626 0.742756 0.839152 1.028117
Pattern_3 1.047670 1.264582 1.504127 1.527155 1.698680 1.802967
Pattern_3 1.679949 1.758267 1.842859 1.883665 1.707407 1.515033
Pattern_3 1.561266 1.534456 1.391368 1.275832 1.265793 1.230607
Pattern_3 1.225021 1.340722 1.227349 1.216510 1.382407 1.417152
Pattern_3 1.311019 1.398796 1.493297 1.305236 1.273527 1.444858
Pattern_3 1.267988 1.179721 1.172914 1.220557 1.056894 0.938068
Pattern_3 0.860782 0.850211 0.810190 0.657390 0.599618 0.536739
Pattern_3 0.574144 0.522914 0.564455 0.659868 0.657731 0.761833
Pattern_3 0.813886 0.948800 0.951345 1.125930 1.218381 1.411672
Pattern_3 1.482690 1.507548 1.478850 1.404206 1.456042 1.492340
Pattern_3 1.474980 1.443510 1.329034 1.331542 1.350952 1.321244
Pattern_3 1.358105 1.257344 1.290185 1.358217 1.301117 1.280207
Pattern_3 1.269642 1.308460 1.307631 1.203952 1.199822 1.248868
Pattern_3 1.143314 1.101817 1.130705 0.984352 0.899214 0.884600
Pattern_3 0.806455

Pattern_4 0.740804 0.720745 0.689429 0.614537 0.555328 0.531309
Pattern_4 0.549804 0.476472 0.513932 0.536595 0.565014 0.606566
Pattern_4 0.706620 0.664783 0.765011 0.870663 1.010191 1.028745
Pattern_4 1.024259 1.139323 1.234953 1.314809 1.336402 1.296314
Pattern_4 1.439829 1.426638 1.281283 1.237132 1.182624 1.183663
Pattern_4 1.207180 1.106822 1.083101 1.183495 1.082496 1.120426
Pattern_4 1.265980 1.216638 1.260897 1.197277 1.197791 1.200675
Pattern_4 1.196510 1.114236 0.996536 1.026893 0.955884 0.883645
Pattern_4 0.728587 0.677933 0.588672 0.533711 0.492250 0.464290
Pattern_4 0.490192 0.541398 0.564927 0.598869 0.687117 0.810721
Pattern_4 0.888567 1.080262 1.109183 1.206840 1.353572 1.486529
Pattern_4 1.589223 1.543033 1.454672 1.732311 1.690934 1.632442
Pattern_4 1.378471 1.624430 1.357572 1.344982 1.424586 1.268870
Pattern_4 1.116375 1.187810 1.134739 1.095567 1.200722 1.162754
Pattern_4 1.262569 1.182774 1.274360 1.452064 1.351470 1.172985
Pattern_4 1.302137 1.196251 1.041192 1.048644 0.912103 0.954340
Pattern_4 0.746431 0.719400 0.680575 0.613106 0.515771 0.526270
Pattern_4 0.487117 0.502788 0.543812 0.694510 0.734670 0.741130
Pattern_4 0.953496 1.040059 1.209194 1.171197 1.363324 1.326396
Pattern_4 1.481220 1.513133 1.489890 1.681337 1.650185 1.505879
Pattern_4 1.423128 1.358173 1.387262 1.318072 1.333729 1.174223
Pattern_4 1.217012 1.206976 1.169704 1.244945 1.150224 1.246680
Pattern_4 1.258179 1.318074 1.374352 1.328098 1.395344 1.308698
Pattern_4 1.402463 1.210285 1.191379 1.109041 0.977525 0.852050
Pattern_4 0.816286 0.737427 0.611034 0.560228 0.516727 0.508756
Pattern_4 0.521319 0.564112 0.622307 0.684694 0.819553 0.875467
Pattern_4 0.995740 1.030290 1.184802 1.337393 1.396527 1.486679
Pattern_4 1.469339 1.465099 1.534234 1.602837 1.495289 1.584384
Pattern_4 1.522518 1.452975 1.391586 1.348098 1.288403 1.254273
Pattern_4 1.347862 1.262856 1.279753 1.210432 1.394003 1.257619
Pattern_4 1.256027 1.484964 1.261004 1.327743 1.285585 1.269286
Pattern_4 1.415303 1.179765 1.181290 0.948969 1.112038 0.881318
Pattern_4 0.826042 0.735473 0.627287 0.573735 0.501624 0.471131
Pattern_4 0.501576 0.511649 0.573822 0.716971 0.801648 0.901602
Pattern_4 0.923039 1.225864 1.213615 1.344142 1.289054 1.392915
Pattern_4 1.504814 1.604491 1.600221 1.628236 1.498400 1.448238
Pattern_4 1.275112 1.382264 1.279738 1.345029 1.190550 1.321679
Pattern_4 1.275754 1.250385 1.274073 1.288885 1.209904 1.231690
Pattern_4 1.250070 1.415900 1.291814 1.292027 1.451382 1.342183
Pattern_4 1.139068 1.153924 1.069209 1.082332 0.942212 0.957760
Pattern_4 0.821107 0.767759 0.725576 0.648941 0.591259 0.531534
Pattern_4 0.561772 0.634006 0.608686 0.731638 0.867458 1.017439
Pattern_4 1.133041 1.201038 1.288749 1.581219 1.660919 1.527679
Pattern_4 1.778495 1.650685 1.606324 1.779797 1.671304 1.532522
Pattern_4 1.505662 1.657338 1.468423 1.430497 1.282519 1.209024
Pattern_4 1.241017 1.211049 1.337051 1.435331 1.353226 1.205317
Pattern_4 1.166591 1.448860 1.341063 1.296242 1.273475 1.208193
Pattern_4 1.207451 1.155114 1.202588 1.014750 1.043326 0.963736
Pattern_4 0.862922 0.819641 0.791305 0.687991 0.679017 0.557493
Pattern_4 0.580640 0.565026 0.577839 0.640356 0.578701 0.737744
Pattern_4 0.739563 0.983527 1.107478 1.116335 1.151571 1.292559
Pattern_4 1.367686 1.429809 1.339172 1.472145 1.538605 1.528732
Pattern_4 1.528660 1.499852 1.493139 1.316718 1.327740 1.332310
Pattern_4 1.335092 1.286987 1.437993 1.275108 1.191442 1.182583
Pattern_4 1.175998 1.243829 1.365928 1.159026 1.154457 0.977013
Pattern_4 1.031558 1.133175 1.049881 0.864643 0.911906 0.824890
Pattern_4 0.752437 0.739948 0.686373 0.680761 0.613223 0.577997
Pattern_4 0.536004 0.563773 0.501902 0.550252 0.552225 0.594452
Pattern_4 0.686113 0.655860 0.794213 0.971611 0.979782 1.147384
Pattern_4 1.163761 1.229110 1.225482 1.371078 1.296833 1.476656
Pattern_4 1.280812 1.383480 1.382877 1.419060 1.268842 1.168937
Pattern_4 1.347298 1.256070 1.071240 1.223019 1.215925 1.206588
Pattern_4 1.200745 1.210177 1.275878 1.224421 1.217192 1.342953
Pattern_4 1.148977 1.163688 1.045596 0.954207 0.922658 0.903517
Pattern_4 0.821469 0.667091 0.631549 0.525640 0.499112 0.513691
Pattern_4 0.489895 0.544576 0.577810 0.649005 0.760476 0.766798
Pattern_4 0.878297 1.118664 1.258476 1.267748 1.371729 1.582114
Pattern_4 1.561638 1.733284 1.684643 1.772683 1.704048 1.537330
Pattern_4 1.361843 1.381420 1.427293 1.332043 1.280781 1.147938
Pattern_4 1.191981 1.088437 1.060129 1.145217 1.157354 1.022424
Pattern_4 1.272278 1.202431 1.282094 1.403660 1.313746 1.108148
Pattern_4 1.283560 1.331992 1.260067 1.126748 1.026374 0.887344
Pattern_4 0.882666 0.705097 0.662967 0.526560 0.521634 0.539106
Pattern_4 0.520278 0.550583 0.645236 0.586714 0.715005 0.817168
Pattern_4 0.996316 1.034534 1.164325 1.317897 1.409508 1.404763
Pattern_4 1.433702 1.529827 1.535516 1.710420 1.561472 1.464775
Pattern_4 1.436574 1.368395 1.460580 1.245578 1.236145 1.232752
Pattern_4 1.230875 1.036658 1.193177 1.203154 1.277293 1.189331
Pattern_4 1.350756 1.336474 1.277574 1.307003 1.420888 1.469890
Pattern_4 1.291105 1.204582 1.138920 1.116878 1.122362 0.894983
Pattern_4 0.851167 0.746725 0.616359 0.576176 0.505403 0.460500
Pattern_4 0.522839 0.587272 0.670371 0.674765 0.819368 0.999090
Pattern_4 0.950193 1.104629 1.105390 1.340335 1.465507 1.488049
Pattern_4 1.491441 1.391897 1.473104 1.485711 1.534460 1.528581
Pattern_4 1.512391 1.391359 1.458329 1.434308 1.405968 1.302011
Pattern_4 1.265197 1.228368 1.323536 1.278863 1.325707 1.276138
Pattern_4 1.189895 1.319785 1.336331 1.409815 1.363121 1.241822
Pattern_4 1.261656 1.202789 1.033328 1.103071 1.073302 0.907086
Pattern_4 0.836185 0.663806 0.594592 0.601865 0.525970 0.488243
Pattern_4 0.535059 0.551510 0.652685 0.723915 0.777973 0.937081
Pattern_4 1.006406 1.161745 1.227585 1.319099 1.483107 1.397882
Pattern_4 1.454247 1.553919 1.567483 1.564619 1.492378 1.471972
Pattern_4 1.388464 1.504802 1.492073 1.202909 1.346297 1.236442
Pattern_4 1.240811 1.328851 1.323733 1.236018 1.295571 1.286132
Pattern_4 1.383804 1.262556 1.270045 1.321991 1.314790 1.425597
Pattern_4 1.244043 1.322334 1.126685 1.185248 0.954131 0.869703
Pattern_4 0.782113 0.763801 0.715216 0.653511 0.626675 0.534176
Pattern_4 0.547240 0.644492 0.619521 0.693953 0.872768 0.957816
Pattern_4 1.155955 1.306690 1.445864 1.587727 1.713120 1.852775
Pattern_4 1.633368 1.727600 1.811997 1.684989 1.814290 1.504608
Pattern_4 1.596346 1.570092 1.502973 1.372195 1.397317 1.294069
Pattern_4 1.427141 1.192075 1.217174 1.447439 1.198990 1.447778
Pattern_4 1.325031 1.289329 1.308802 1.411149 1.151688 1.285042
Pattern_4 1.201918 1.202937 1.243564 0.991432 0.966647 1.016225
Pattern_4 0.899830 0.783048 0.688436 0.676266 0.597497 0.660579