; Filename: ../Network_Originals/Hanoi_CMH.inp
; WNTR: 0.4.0
; Created: 2022-11-16 12:31:25
[TITLE]

[JUNCTIONS]
;ID                      Elevation       Demand Pattern                 
 2                                 30          247.22 Pattern_2                  ;
 3                                 30          236.11 Pattern_3                  ;
 4                                 30           36.11 Pattern_4                  ;
 5                                 30          201.39 Pattern_5                  ;
 6                                 30          279.17 Pattern_6                  ;
 7                                 30             375 Pattern_7                  ;
 8                                 30          152.78 Pattern_8                  ;
 9                                 30          145.83 Pattern_9                  ;
 10                                30          145.83 Pattern_10                 ;
 11                                30          138.89 Pattern_11                 ;
 12                                30          155.56 Pattern_12                 ;
 13                                30          261.11 Pattern_13                 ;
 14                                30          170.83 Pattern_14                 ;
 15                                30           77.78 Pattern_15                 ;
 16                                30           86.11 Pattern_16                 ;
 17                                30          240.28 Pattern_17                 ;
 18                                30          373.61 Pattern_18                 ;
 19                                30           16.67 Pattern_19                 ;
 20                                30          354.17 Pattern_20                 ;
 21                                30          258.33 Pattern_21                 ;
 22                                30          134.72 Pattern_22                 ;
 23                                30          290.28 Pattern_23                 ;
 24                                30          227.78 Pattern_24                 ;
 25                                30           47.22 Pattern_25                 ;
 26                                30             250 Pattern_26                 ;
 27                                30          102.78 Pattern_27                 ;
 28                                30           80.56 Pattern_28                 ;
 29                                30             100 Pattern_29                 ;
 30                                30             100 Pattern_30                 ;
 31                                30           29.17 Pattern_31                 ;
 32                                30          223.61 Pattern_32                 ;

[RESERVOIRS]
;ID                                   Head                  Pattern
 1                                100                            ;

[TANKS]
;ID                              Elevation           Init Level            Min Level            Max Level             Diameter           Min Volume Volume Curve         Overflow            

[PIPES]
;ID                   Node1                Node2                              Length             Diameter            Roughness           Minor Loss               Status
 1                    1                    2                                100            1016             130               0                 Open   ;
 2                    2                    3                               1350            1016             130               0                 Open   ;
 3                    3                    4                                900            1016             130               0                 Open   ;
 4                    4                    5                               1150            1016             130               0                 Open   ;
 5                    5                    6                               1450            1016             130               0                 Open   ;
 6                    6                    7                                450            1016             130               0                 Open   ;
 7                    7                    8                                850            1016             130               0                 Open   ;
 8                    8                    9                                850            1016             130               0                 Open   ;
 9                    9                    10                               800            1016             130               0                 Open   ;
 10                   10                   11                               950             762             130               0                 Open   ;
 11                   11                   12                              1200             762             130               0                 Open   ;
 12                   12                   13                              3500           609.6             130               0                 Open   ;
 13                   10                   14                               800           406.4             130               0                 Open   ;
 14                   14                   15                               500           406.4             130               0                 Open   ;
 15                   15                   16                               550           304.8             130               0                 Open   ;
 16                   17                   16                              2730           406.4             130               0                 Open   ;
 17                   17                   18                              1750             508             130               0                 Open   ;
 18                   18                   19                               800           609.6             130               0                 Open   ;
 19                   19                   3                                400           609.6             130               0                 Open   ;
 20                   3                    20                              2200            1016             130               0                 Open   ;
 21                   20                   21                              1500             508             130               0                 Open   ;
 22                   21                   22                               500           304.8             130               0                 Open   ;
 23                   20                   23                              2650            1016             130               0                 Open   ;
 24                   23                   24                              1230             762             130               0                 Open   ;
 25                   24                   25                              1300             762             130               0                 Open   ;
 26                   26                   25                               850             508             130               0                 Open   ;
 27                   27                   26                               300           304.8             130               0                 Open   ;
 28                   16                   27                               750           304.8             130               0                 Open   ;
 29                   23                   28                              1500           406.4             130               0                 Open   ;
 30                   28                   29                              2000           406.4             130               0                 Open   ;
 31                   29                   30                              1600           304.8             130               0                 Open   ;
 32                   30                   31                               150           304.8             130               0                 Open   ;
 33                   32                   31                               860           406.4             130               0                 Open   ;
 34                   25                   32                               950             508             130               0                 Open   ;

[PUMPS]
;ID                   Node1                Node2                Properties          

[VALVES]
;ID                   Node1                Node2                            Diameter Type              Setting           Minor Loss

[TAGS]
;type      name       tag       

[DEMANDS]
;ID        Demand     Pattern   

[STATUS]
;ID        Setting   

[PATTERNS]
;ID        Multipliers

Pattern_2 0.823107 0.719076 0.741485 0.699738 0.602047 0.586840
Pattern_2 0.509955 0.572754 0.599231 0.601271 0.624333 0.744188
Pattern_2 0.751172 0.732155 0.795655 0.861618 1.032630 1.054329
Pattern_2 1.106219 1.177673 1.292286 1.334645 1.443760 1.370087
Pattern_2 1.341084 1.335447 1.451127 1.185274 1.245803 1.231731
Pattern_2 1.126287 1.234949 1.220306 1.134657 1.132161 1.193857
Pattern_2 1.217534 1.169222 1.284882 1.162237 1.179523 1.115336
Pattern_2 1.195921 1.192084 1.048309 0.960939 0.938730 0.889504
Pattern_2 0.714654 0.616133 0.590508 0.569922 0.441082 0.479102
Pattern_2 0.497057 0.543473 0.524361 0.678746 0.834920 0.879480
Pattern_2 0.952731 1.034817 1.192575 1.309457 1.436873 1.379213
Pattern_2 1.570054 1.546492 1.619446 1.668677 1.488505 1.587644
Pattern_2 1.518162 1.450020 1.366772 1.238756 1.259708 1.180891
Pattern_2 1.027221 1.170378 1.256289 1.140608 1.164465 1.097726
Pattern_2 1.280641 1.278651 1.268290 1.341568 1.406151 1.377573
Pattern_2 1.315144 1.334143 1.247830 1.102513 0.995516 0.948167
Pattern_2 0.740707 0.741487 0.575319 0.535290 0.525667 0.495263
Pattern_2 0.504813 0.554630 0.628159 0.659244 0.783047 0.829172
Pattern_2 0.951238 1.188471 1.219325 1.377049 1.405468 1.506923
Pattern_2 1.492350 1.459539 1.505992 1.459362 1.602073 1.567610
Pattern_2 1.451514 1.424357 1.311164 1.181893 1.335386 1.213978
Pattern_2 1.209575 1.116706 1.246024 1.155065 1.296193 1.237831
Pattern_2 1.221394 1.369946 1.339842 1.471866 1.288170 1.376182
Pattern_2 1.269280 1.218062 1.103486 1.030580 1.080791 0.898033
Pattern_2 0.776202 0.612585 0.670966 0.551524 0.528326 0.545097
Pattern_2 0.545190 0.523017 0.643462 0.726982 0.888594 0.838770
Pattern_2 0.995800 1.068597 1.149565 1.273749 1.317400 1.502258
Pattern_2 1.598562 1.577348 1.515896 1.538345 1.452102 1.392910
Pattern_2 1.500412 1.538561 1.318207 1.300303 1.334903 1.372137
Pattern_2 1.258426 1.270898 1.316619 1.245441 1.317163 1.139121
Pattern_2 1.304710 1.379502 1.300068 1.360466 1.300076 1.394446
Pattern_2 1.436965 1.162472 1.003985 1.079401 1.059079 0.881088
Pattern_2 0.869263 0.667962 0.628058 0.517869 0.564028 0.498633
Pattern_2 0.558874 0.565831 0.593951 0.741122 0.808654 0.896158
Pattern_2 1.060489 1.185969 1.190644 1.267936 1.461170 1.593124
Pattern_2 1.538807 1.467848 1.707926 1.685063 1.463419 1.363567
Pattern_2 1.295727 1.412750 1.209169 1.298200 1.235910 1.296431
Pattern_2 1.306662 1.191845 1.263606 1.256718 1.193162 1.209571
Pattern_2 1.323523 1.403882 1.440984 1.483102 1.347329 1.304739
Pattern_2 1.314510 1.354813 1.075887 1.151742 0.962390 0.957546
Pattern_2 0.876696 0.712025 0.675755 0.592516 0.611447 0.427851
Pattern_2 0.544979 0.541982 0.655816 0.716656 0.880390 0.974618
Pattern_2 1.133412 1.206615 1.433930 1.533010 1.578726 1.662701
Pattern_2 1.744951 1.856399 1.731195 1.743183 1.644189 1.772202
Pattern_2 1.586378 1.397655 1.411588 1.440217 1.441948 1.338346
Pattern_2 1.377844 1.297253 1.287803 1.369130 1.326558 1.286245
Pattern_2 1.300754 1.385962 1.383469 1.376177 1.329340 1.371130
Pattern_2 1.142436 1.220818 1.165140 1.110136 1.034706 0.919706
Pattern_2 0.878665 0.821725 0.685194 0.586759 0.596905 0.570881
Pattern_2 0.564969 0.577478 0.615453 0.647168 0.677573 0.783877
Pattern_2 0.844407 0.893252 1.045219 1.005351 1.246490 1.166490
Pattern_2 1.213655 1.279688 1.444111 1.537104 1.497792 1.377113
Pattern_2 1.397363 1.433665 1.442914 1.423436 1.364526 1.409806
Pattern_2 1.225810 1.329766 1.342031 1.272885 1.420173 1.334899
Pattern_2 1.304447 1.301698 1.245618 1.281980 1.221742 1.122111
Pattern_2 1.163507 1.071625 0.998930 0.942430 0.845075 0.819044
Pattern_2 0.783696 0.754202 0.669850 0.606024 0.596821 0.659708
Pattern_2 0.586411 0.529190 0.542398 0.573129 0.622110 0.717003
Pattern_2 0.751637 0.757996 0.810382 0.818765 0.933592 1.126628
Pattern_2 1.212593 1.325560 1.406792 1.292512 1.385106 1.403354
Pattern_2 1.331781 1.396338 1.337518 1.366095 1.248565 1.125773
Pattern_2 1.238833 1.224609 1.295589 1.103661 1.221640 1.253376
Pattern_2 1.286941 1.302772 1.336512 1.279791 1.285225 1.330257
Pattern_2 1.228122 1.030182 1.143348 1.041621 0.989601 0.853279
Pattern_2 0.801856 0.720828 0.664193 0.533936 0.522166 0.523458
Pattern_2 0.532724 0.526085 0.552807 0.626654 0.728575 0.887491
Pattern_2 1.005288 1.141438 1.171335 1.368303 1.339344 1.384701
Pattern_2 1.729416 1.550547 1.615040 1.705463 1.715809 1.397047
Pattern_2 1.351734 1.478483 1.378591 1.431858 1.318077 1.151742
Pattern_2 1.188287 1.258433 0.999732 1.129803 1.215227 1.110049
Pattern_2 1.419031 1.215642 1.339609 1.405713 1.384513 1.381370
Pattern_2 1.375383 1.178619 1.144602 1.099464 1.049144 0.957963
Pattern_2 0.793094 0.665653 0.571893 0.562472 0.528452 0.510409
Pattern_2 0.504823 0.565534 0.585840 0.603384 0.764546 0.942636
Pattern_2 0.987072 1.209098 1.161716 1.335843 1.386765 1.612866
Pattern_2 1.597343 1.561183 1.572520 1.575627 1.461028 1.310943
Pattern_2 1.457090 1.504833 1.356974 1.336136 1.281505 1.130102
Pattern_2 1.174750 1.212546 1.186556 1.160771 1.169742 1.251879
Pattern_2 1.377811 1.459344 1.422303 1.423793 1.301729 1.415521
Pattern_2 1.278258 1.276359 1.212170 1.066909 0.913398 0.862415
Pattern_2 0.909809 0.674524 0.599762 0.523088 0.534875 0.509081
Pattern_2 0.523298 0.557082 0.582206 0.654588 0.843908 0.858323
Pattern_2 1.039672 1.197701 1.295979 1.462363 1.479281 1.293962
Pattern_2 1.668716 1.523403 1.637858 1.494062 1.555674 1.652424
Pattern_2 1.566778 1.335845 1.519329 1.399637 1.352458 1.390856
Pattern_2 1.371591 1.337227 1.339427 1.223710 1.242860 1.335733
Pattern_2 1.315492 1.428390 1.352207 1.412091 1.390861 1.259734
Pattern_2 1.217626 1.279454 1.219595 1.070221 0.974392 0.910930
Pattern_2 0.827079 0.752422 0.652467 0.580982 0.543555 0.507885
Pattern_2 0.517292 0.552007 0.670803 0.710704 0.818461 1.034115
Pattern_2 1.035448 1.174104 1.178083 1.481486 1.379675 1.532682
Pattern_2 1.478640 1.577395 1.724110 1.667690 1.639591 1.553576
Pattern_2 1.497503 1.346321 1.348795 1.311063 1.277621 1.320959
Pattern_2 1.302960 1.179704 1.155765 1.310921 1.304363 1.345837
Pattern_2 1.439161 1.365651 1.337706 1.462041 1.408638 1.416761
Pattern_2 1.309150 1.287601 1.320508 1.104909 1.027527 0.947899
Pattern_2 0.886119 0.725761 0.623421 0.601062 0.562076 0.542088
Pattern_2 0.531035 0.582968 0.721248 0.787476 0.991170 0.996622
Pattern_2 1.082347 1.276606 1.579223 1.404843 1.589794 1.745109
Pattern_2 1.853117 1.716932 1.820023 1.679782 1.830814 1.594029
Pattern_2 1.548515 1.604320 1.473631 1.432171 1.275533 1.367624
Pattern_2 1.331756 1.387431 1.202212 1.401477 1.389060 1.245123
Pattern_2 1.433138 1.323501 1.512071 1.306953 1.424496 1.374000
Pattern_2 1.218341 1.254487 1.321931 1.029719 0.998730 0.876852
Pattern_2 0.788085 0.851914 0.745262 0.700832 0.649933 0.586486
Pattern_2 0.588095 0.599813 0.599361 0.645214 0.690541 0.756807
Pattern_2 0.818348 0.967034 1.032967 1.201471 1.271687 1.322382
Pattern_2 1.248872 1.459336 1.516031 1.429928 1.477299 1.523810
Pattern_2 1.497382 1.427271 1.344900 1.467743 1.322189 1.312949
Pattern_2 1.440719 1.324700 1.270605 1.326145 1.359481 1.373848
Pattern_2 1.237613 1.381799 1.192725 1.298517 1.220461 1.140702
Pattern_2 1.125976 1.090467 1.069425 0.969506 0.848615 0.847641
Pattern_2 0.794251

Pattern_3 0.742627 0.762026 0.747344 0.671020 0.580875 0.549877
Pattern_3 0.615345 0.574608 0.597282 0.558582 0.616166 0.647075
Pattern_3 0.711030 0.811889 0.774505 1.001503 1.020112 1.013391
Pattern_3 1.015332 1.104007 1.278814 1.333479 1.256619 1.239321
Pattern_3 1.232814 1.284069 1.305172 1.099520 1.220881 1.140478
Pattern_3 1.242508 1.119803 1.116483 1.223196 1.207037 1.203998
Pattern_3 1.203816 1.313667 1.219233 1.272371 1.298465 1.137918
Pattern_3 1.162709 1.124578 1.066019 0.959510 0.971705 0.870435
Pattern_3 0.781046 0.666847 0.590033 0.511808 0.489025 0.489624
Pattern_3 0.500393 0.555981 0.611456 0.649725 0.701423 0.845537
Pattern_3 0.950124 1.025187 1.225841 1.262550 1.351648 1.570949
Pattern_3 1.489021 1.537730 1.640506 1.586938 1.573181 1.679909
Pattern_3 1.620643 1.402767 1.455607 1.333665 1.441815 1.189534
Pattern_3 1.186768 1.183825 1.102948 1.133318 1.060091 1.276496
Pattern_3 1.245568 1.278851 1.265996 1.360354 1.280071 1.323100
Pattern_3 1.155658 1.275424 1.183352 1.065845 1.099745 0.965051
Pattern_3 0.766695 0.736373 0.646494 0.579808 0.544160 0.461524
Pattern_3 0.547261 0.544991 0.598468 0.598046 0.790260 0.876986
Pattern_3 1.050844 1.098749 1.073670 1.276512 1.404309 1.490349
Pattern_3 1.473288 1.465610 1.547818 1.514430 1.529583 1.401267
Pattern_3 1.425130 1.309392 1.287711 1.388921 1.254500 1.083404
Pattern_3 1.077135 1.112546 1.198541 1.239190 1.098751 1.180446
Pattern_3 1.196578 1.286508 1.476315 1.353145 1.469390 1.268954
Pattern_3 1.376670 1.237635 1.163407 1.090629 0.937686 0.866442
Pattern_3 0.794181 0.725528 0.602589 0.539907 0.571666 0.536080
Pattern_3 0.527332 0.608584 0.618174 0.665626 0.774350 0.930839
Pattern_3 1.023892 1.206095 1.173228 1.267838 1.342086 1.455780
Pattern_3 1.473819 1.512990 1.560375 1.522835 1.425316 1.528277
Pattern_3 1.447964 1.565040 1.399437 1.329723 1.330840 1.374843
Pattern_3 1.260005 1.267160 1.264199 1.162661 1.253427 1.259937
Pattern_3 1.257026 1.387922 1.358064 1.331375 1.277966 1.254732
Pattern_3 1.187093 1.053657 1.260468 1.075317 1.036563 0.924027
Pattern_3 0.755109 0.724894 0.681171 0.578650 0.511424 0.538171
Pattern_3 0.535494 0.524829 0.588559 0.689371 0.820234 0.879426
Pattern_3 0.989953 1.054522 1.191585 1.404704 1.360136 1.470350
Pattern_3 1.520376 1.515489 1.508294 1.426944 1.412539 1.529526
Pattern_3 1.312351 1.438167 1.283029 1.272705 1.313104 1.204800
Pattern_3 1.120670 1.299839 1.258265 1.166071 1.273820 1.296593
Pattern_3 1.364089 1.236951 1.221956 1.403962 1.273932 1.296845
Pattern_3 1.348722 1.329179 1.232254 1.103728 1.006173 0.955619
Pattern_3 0.803941 0.743131 0.690626 0.594942 0.590083 0.566324
Pattern_3 0.577355 0.581925 0.663695 0.741150 0.813676 0.974256
Pattern_3 1.197018 1.157804 1.521778 1.378214 1.792895 1.838229
Pattern_3 1.723000 1.788773 1.850542 1.661749 1.670113 1.799895
Pattern_3 1.509129 1.537031 1.388798 1.484446 1.227074 1.357862
Pattern_3 1.297529 1.349340 1.271122 1.256803 1.287817 1.383736
Pattern_3 1.213798 1.305126 1.349168 1.261642 1.197105 1.392158
Pattern_3 1.200999 1.262235 1.238568 1.141338 1.051762 0.847982
Pattern_3 0.907872 0.728623 0.758355 0.667879 0.603507 0.579116
Pattern_3 0.630800 0.590330 0.589871 0.617623 0.703077 0.777612
Pattern_3 0.820443 0.886321 1.057187 1.070498 1.252796 1.262408
Pattern_3 1.337305 1.410388 1.353957 1.368146 1.486465 1.506729
Pattern_3 1.470754 1.442326 1.371584 1.278362 1.490878 1.258457
Pattern_3 1.296594 1.235620 1.394101 1.431238 1.336158 1.365697
Pattern_3 1.354634 1.320950 1.375202 1.365982 1.196380 1.242820
Pattern_3 1.165354 1.002578 1.036133 0.901025 0.979739 0.846711
Pattern_3 0.776175 0.733009 0.729496 0.621911 0.614933 0.599761
Pattern_3 0.582106 0.624101 0.611609 0.579470 0.590650 0.696610
Pattern_3 0.695418 0.790094 0.831107 1.025816 0.985089 1.103052
Pattern_3 1.140556 1.266831 1.410309 1.375428 1.307760 1.217492
Pattern_3 1.332177 1.441082 1.368438 1.280543 1.216755 1.359005
Pattern_3 1.258760 1.196402 1.191300 1.129671 1.173623 1.207672
Pattern_3 1.308306 1.305378 1.185230 1.377850 1.304282 1.268525
Pattern_3 1.273708 1.157125 1.074830 1.037975 0.926365 0.838639
Pattern_3 0.760540 0.739450 0.647827 0.578435 0.534091 0.497126
Pattern_3 0.516784 0.500495 0.577559 0.722201 0.846596 0.860916
Pattern_3 0.987858 1.073129 1.197448 1.397816 1.435846 1.640594
Pattern_3 1.536487 1.701137 1.642289 1.655557 1.546090 1.512322
Pattern_3 1.575287 1.427354 1.527666 1.245797 1.174167 1.212392
Pattern_3 1.130997 1.201281 1.221631 1.193249 1.277095 1.242411
Pattern_3 1.291667 1.271187 1.358505 1.291097 1.344992 1.491736
Pattern_3 1.310129 1.193913 1.158119 1.058488 0.993680 0.853388
Pattern_3 0.766104 0.702888 0.729415 0.631385 0.606417 0.550825
Pattern_3 0.555396 0.575790 0.611339 0.653025 0.723030 0.856310
Pattern_3 0.951748 1.017457 1.135147 1.319261 1.377091 1.422484
Pattern_3 1.403556 1.722846 1.559903 1.481856 1.518128 1.508909
Pattern_3 1.535054 1.425978 1.388459 1.331440 1.229427 1.124524
Pattern_3 1.234085 1.207064 1.113475 1.176035 1.228746 1.173773
Pattern_3 1.192563 1.290928 1.416747 1.429200 1.269098 1.322412
Pattern_3 1.387478 1.323511 1.228748 1.197745 1.002566 0.922244
Pattern_3 0.767179 0.692288 0.622324 0.585092 0.540048 0.498215
Pattern_3 0.529558 0.605250 0.638804 0.693045 0.806485 0.938666
Pattern_3 1.135853 1.136525 1.164783 1.324855 1.490992 1.473351
Pattern_3 1.552490 1.446474 1.466828 1.540441 1.452784 1.526070
Pattern_3 1.511511 1.501231 1.352711 1.501409 1.377133 1.336344
Pattern_3 1.281688 1.110248 1.333221 1.249613 1.251514 1.220705
Pattern_3 1.234690 1.300385 1.432082 1.369242 1.321326 1.233893
Pattern_3 1.278692 1.332790 1.173278 1.161545 1.020277 0.897271
Pattern_3 0.849491 0.817269 0.673556 0.630931 0.596541 0.503454
Pattern_3 0.537420 0.526233 0.611042 0.708861 0.760001 0.959160
Pattern_3 1.033841 1.047136 1.309484 1.322399 1.370521 1.557857
Pattern_3 1.678227 1.538422 1.513989 1.573383 1.438850 1.400352
Pattern_3 1.459353 1.424317 1.383730 1.301045 1.265297 1.233546
Pattern_3 1.285710 1.132409 1.280375 1.244857 1.207881 1.309434
Pattern_3 1.301741 1.419865 1.347321 1.355528 1.549073 1.257825
Pattern_3 1.511055 1.283931 1.214758 1.136296 1.013689 0.934660
Pattern_3 0.803794 0.742461 0.742858 0.602610 0.591517 0.558772
Pattern_3 0.556478 0.632912 0.710290 0.744156 0.898048 0.977149
Pattern_3 1.222139 1.292932 1.384465 1.569340 1.556009 1.615265
Pattern_3 1.846131 1.823318 1.767271 1.788609 1.469095 1.683627
Pattern_3 1.573851 1.473763 1.385213 1.409543 1.351264 1.262291
Pattern_3 1.308946 1.331292 1.339016 1.298489 1.237113 1.287638
Pattern_3 1.295119 1.431005 1.431335 1.263926 1.396624 1.358244
Pattern_3 1.349691 1.265710 1.214038 1.064661 0.989313 0.941167
Pattern_3 0.866311 0.890459 0.732270 0.690587 0.592598 0.619736
Pattern_3 0.625707 0.604632 0.575638 0.644307 0.676137 0.829963
Pattern_3 0.895989 1.038177 1.002979 1.124282 1.374085 1.212016
Pattern_3 1.394150 1.467163 1.460254 1.412669 1.464137 1.566942
Pattern_3 1.310150 1.499416 1.442932 1.225224 1.384609 1.369184
Pattern_3 1.337441 1.411089 1.286293 1.315594 1.378335 1.425969
Pattern_3 1.335821 1.266258 1.188777 1.192030 1.264008 1.234237
Pattern_3 1.138819 1.060644 1.026987 1.005562 0.893914 0.832626
Pattern_3 0.848814

Pattern_4 0.766690 0.694357 0.616801 0.603410 0.528869 0.522265
Pattern_4 0.505746 0.526932 0.453631 0.524059 0.542831 0.559478
Pattern_4 0.639727 0.670223 0.776835 0.780459 0.986123 1.143683
Pattern_4 1.166351 1.253563 1.368898 1.470614 1.355887 1.455010
Pattern_4 1.321943 1.400582 1.340603 1.308030 1.325658 1.342545
Pattern_4 1.160063 1.205335 1.139124 1.068803 1.086190 1.158350
Pattern_4 1.197942 1.249128 1.285398 1.126414 1.277298 1.233847
Pattern_4 1.290976 1.120058 0.986427 0.961589 0.944045 0.730522
Pattern_4 0.692940 0.598686 0.529374 0.503535 0.422225 0.418733
Pattern_4 0.445196 0.432681 0.498029 0.566792 0.714210 0.767199
Pattern_4 0.943250 1.083136 1.191151 1.323821 1.385742 1.631965
Pattern_4 1.720170 1.755359 1.724645 1.722588 1.875368 1.397775
Pattern_4 1.654939 1.561136 1.341519 1.453026 1.251608 1.241565
Pattern_4 1.270141 1.188731 1.139057 1.061741 1.045761 1.149873
Pattern_4 1.315524 1.371430 1.310796 1.359440 1.351955 1.326480
Pattern_4 1.329980 1.276411 1.189050 1.098751 1.008742 0.892750
Pattern_4 0.671204 0.594165 0.592018 0.462393 0.446321 0.454629
Pattern_4 0.459945 0.486609 0.541843 0.603940 0.695479 0.798999
Pattern_4 0.942709 1.098606 1.223672 1.322069 1.320759 1.487235
Pattern_4 1.520130 1.594992 1.541822 1.540119 1.582135 1.487590
Pattern_4 1.487198 1.498218 1.422693 1.453905 1.385109 1.145522
Pattern_4 1.125094 1.220887 1.166750 1.121257 1.175054 1.110621
Pattern_4 1.396244 1.373659 1.434968 1.515173 1.424493 1.432092
Pattern_4 1.297398 1.252057 1.210272 1.139349 0.911939 0.864939
Pattern_4 0.733516 0.622079 0.557404 0.486109 0.449657 0.392249
Pattern_4 0.413887 0.479970 0.558659 0.644491 0.728524 0.892841
Pattern_4 1.044863 1.001692 1.258884 1.324316 1.458455 1.465855
Pattern_4 1.602588 1.473677 1.564679 1.644328 1.632997 1.578300
Pattern_4 1.606641 1.524953 1.437041 1.377438 1.356121 1.259235
Pattern_4 1.239755 1.337039 1.367099 1.242029 1.226674 1.335529
Pattern_4 1.311609 1.443360 1.274956 1.434053 1.278105 1.353924
Pattern_4 1.324442 1.300144 1.154375 1.234005 0.932047 0.983992
Pattern_4 0.742231 0.713590 0.578768 0.462454 0.469425 0.433204
Pattern_4 0.441726 0.504738 0.496359 0.658416 0.761852 0.886021
Pattern_4 1.038025 1.211346 1.419963 1.404528 1.519445 1.621838
Pattern_4 1.649950 1.623887 1.692120 1.613851 1.516251 1.565423
Pattern_4 1.554810 1.396579 1.439280 1.265418 1.478722 1.143156
Pattern_4 1.209046 1.206139 1.228690 1.141706 1.315491 1.351215
Pattern_4 1.242682 1.354210 1.391073 1.331349 1.308393 1.476409
Pattern_4 1.340154 1.260528 1.218971 1.111695 1.037966 0.876212
Pattern_4 0.751314 0.707385 0.622093 0.503756 0.443694 0.411221
Pattern_4 0.473376 0.550136 0.573702 0.749069 0.878509 1.041939
Pattern_4 1.196264 1.329084 1.290839 1.565425 1.656611 1.620924
Pattern_4 1.891724 1.815811 1.808747 1.912897 1.634390 1.670275
Pattern_4 1.591481 1.494576 1.476539 1.476233 1.468978 1.435922
Pattern_4 1.289241 1.274550 1.297473 1.311041 1.321632 1.294345
Pattern_4 1.213565 1.267774 1.337329 1.281606 1.204030 1.319925
Pattern_4 1.347561 1.197858 1.058455 0.963443 0.966221 0.905462
Pattern_4 0.850961 0.787290 0.691786 0.604355 0.595889 0.491687
Pattern_4 0.460198 0.438869 0.523055 0.524989 0.584672 0.759699
Pattern_4 0.744065 0.969266 1.033272 1.145032 1.315351 1.218145
Pattern_4 1.446299 1.442848 1.468248 1.577612 1.621303 1.643831
Pattern_4 1.488734 1.390128 1.482406 1.365881 1.468174 1.349620
Pattern_4 1.409663 1.424636 1.239528 1.340721 1.305610 1.295291
Pattern_4 1.408327 1.316629 1.228668 1.151349 1.251859 1.166273
Pattern_4 1.147319 1.108373 0.969542 0.877353 0.812027 0.783461
Pattern_4 0.755491 0.668349 0.641769 0.521207 0.595349 0.521702
Pattern_4 0.531017 0.510646 0.510180 0.529405 0.516588 0.628566
Pattern_4 0.633094 0.668684 0.862067 0.896541 0.958707 1.112821
Pattern_4 1.252387 1.194444 1.379224 1.375640 1.307247 1.325051
Pattern_4 1.453198 1.343074 1.377086 1.441465 1.299020 1.241567
Pattern_4 1.204548 1.216655 1.248706 1.242300 1.120200 1.192063
Pattern_4 1.230080 1.180861 1.135465 1.353413 1.299080 1.395612
Pattern_4 1.186331 1.155656 1.090534 1.072919 0.968238 0.855188
Pattern_4 0.766729 0.599654 0.529747 0.494205 0.408128 0.422486
Pattern_4 0.436899 0.448901 0.440973 0.622212 0.669342 0.812347
Pattern_4 0.971080 1.142521 1.279854 1.349683 1.472857 1.572230
Pattern_4 1.619235 1.895785 1.840334 1.855189 1.711017 1.753082
Pattern_4 1.650910 1.654673 1.570951 1.295706 1.273950 1.229826
Pattern_4 1.257774 1.107576 1.124180 1.214970 1.080577 1.158578
Pattern_4 1.221790 1.286232 1.256655 1.276198 1.416703 1.474681
Pattern_4 1.317684 1.225140 1.238053 1.114360 1.009546 0.906429
Pattern_4 0.790782 0.668650 0.590298 0.535674 0.494220 0.437124
Pattern_4 0.447574 0.506643 0.502231 0.589754 0.676377 0.844377
Pattern_4 0.988706 1.118284 1.190510 1.220170 1.421073 1.590141
Pattern_4 1.608722 1.628962 1.656383 1.552091 1.693294 1.629476
Pattern_4 1.660799 1.391898 1.511577 1.421178 1.255864 1.280991
Pattern_4 1.179780 1.237409 1.232767 1.130910 1.332070 1.374822
Pattern_4 1.254271 1.426709 1.311096 1.358240 1.386348 1.393697
Pattern_4 1.216343 1.164260 1.173523 1.115585 0.997567 0.920858
Pattern_4 0.738017 0.702458 0.574317 0.481644 0.389891 0.400750
Pattern_4 0.448450 0.517628 0.554363 0.675043 0.710570 0.889905
Pattern_4 1.015333 1.109248 1.303588 1.352702 1.458727 1.505832
Pattern_4 1.727307 1.712892 1.800745 1.573721 1.539038 1.621681
Pattern_4 1.483351 1.570489 1.489040 1.296368 1.457138 1.315309
Pattern_4 1.295248 1.287613 1.378132 1.142081 1.201972 1.326301
Pattern_4 1.383659 1.371890 1.357447 1.335663 1.357364 1.305983
Pattern_4 1.361524 1.254143 1.313171 1.079276 1.017778 0.972152
Pattern_4 0.786522 0.713746 0.590996 0.538319 0.463109 0.386314
Pattern_4 0.476702 0.494680 0.535668 0.572784 0.806792 0.927282
Pattern_4 1.002556 1.196914 1.162078 1.439376 1.550114 1.571243
Pattern_4 1.620107 1.741398 1.683494 1.661294 1.652159 1.698989
Pattern_4 1.407671 1.377888 1.351087 1.280339 1.196424 1.223603
Pattern_4 1.203327 1.263012 1.214757 1.257461 1.345392 1.192472
Pattern_4 1.529034 1.298595 1.390455 1.423299 1.430677 1.245675
Pattern_4 1.214103 1.296472 1.328305 1.120954 1.076765 0.950111
Pattern_4 0.815494 0.755297 0.565266 0.483461 0.478507 0.487104
Pattern_4 0.476990 0.500662 0.625174 0.654866 0.872709 0.883414
Pattern_4 1.088831 1.293944 1.374065 1.761941 1.787361 1.890748
Pattern_4 1.971375 1.969538 1.946049 1.720991 1.799518 1.735821
Pattern_4 1.694775 1.672108 1.574709 1.514904 1.340470 1.357071
Pattern_4 1.351119 1.354368 1.352758 1.339551 1.461988 1.309041
Pattern_4 1.273869 1.355418 1.326654 1.354727 1.275750 1.234547
Pattern_4 1.204002 1.192285 1.130805 1.017397 0.957150 0.954340
Pattern_4 0.828565 0.750289 0.675284 0.612253 0.526253 0.479706