; Filename: ../Network_Originals/Hanoi_CMH.inp
; WNTR: 0.4.0
; Created: 2022-11-16 12:31:33
[TITLE]

[JUNCTIONS]
;ID                      Elevation       Demand Pattern                 
 2                                 30          247.22 Pattern_2                  ;
 3                                 30          236.11 Pattern_3                  ;
 4                                 30           36.11 Pattern_4                  ;
 5                                 30          201.39 Pattern_5                  ;
 6                                 30          279.17 Pattern_6                  ;
 7                                 30             375 Pattern_7                  ;
 8                                 30          152.78 Pattern_8                  ;
 9                                 30          145.83 Pattern_9                  ;
 10                                30          145.83 Pattern_10                 ;
 11                                30          138.89 Pattern_11                 ;
 12                                30          155.56 Pattern_12                 ;
 13                                30          261.11 Pattern_13                 ;
 14                                30          170.83 Pattern_14                 ;
 15                                30           77.78 Pattern_15                 ;
 16                                30           86.11 Pattern_16                 ;
 17                                30          240.28 Pattern_17                 ;
 18                                30          373.61 Pattern_18                 ;
 19                                30           16.67 Pattern_19                 ;
 20                                30          354.17 Pattern_20                 ;
 21                                30          258.33 Pattern_21                 ;
 22                                30          134.72 Pattern_22                 ;
 23                                30          290.28 Pattern_23                 ;
 24                                30          227.78 Pattern_24                 ;
 25                                30           47.22 Pattern_25                 ;
 26                                30             250 Pattern_26                 ;
 27                                30          102.78 Pattern_27                 ;
 28                                30           80.56 Pattern_28                 ;
 29                                30             100 Pattern_29                 ;
 30                                30             100 Pattern_30                 ;
 31                                30           29.17 Pattern_31                 ;
 32                                30          223.61 Pattern_32                 ;

[RESERVOIRS]
;ID                                   Head                  Pattern
 1                                100                            ;

[TANKS]
;ID                              Elevation           Init Level            Min Level            Max Level             Diameter           Min Volume Volume Curve         Overflow            

[PIPES]
;ID                   Node1                Node2                              Length             Diameter            Roughness           Minor Loss               Status
 1                    1                    2                                100            1016             130               0                 Open   ;
 2                    2                    3                               1350            1016             130               0                 Open   ;
 3                    3                    4                                900            1016             130               0                 Open   ;
 4                    4                    5                               1150            1016             130               0                 Open   ;
 5                    5                    6                               1450            1016             130               0                 Open   ;
 6                    6                    7                                450            1016             130               0                 Open   ;
 7                    7                    8                                850            1016             130               0                 Open   ;
 8                    8                    9                                850            1016             130               0                 Open   ;
 9                    9                    10                               800            1016             130               0                 Open   ;
 10                   10                   11                               950             762             130               0                 Open   ;
 11                   11                   12                              1200             762             130               0                 Open   ;
 12                   12                   13                              3500           609.6             130               0                 Open   ;
 13                   10                   14                               800           406.4             130               0                 Open   ;
 14                   14                   15                               500           406.4             130               0                 Open   ;
 15                   15                   16                               550           304.8             130               0                 Open   ;
 16                   17                   16                              2730           406.4             130               0                 Open   ;
 17                   17                   18                              1750             508             130               0                 Open   ;
 18                   18                   19                               800           609.6             130               0                 Open   ;
 19                   19                   3                                400           609.6             130               0                 Open   ;
 20                   3                    20                              2200            1016             130               0                 Open   ;
 21                   20                   21                              1500             508             130               0                 Open   ;
 22                   21                   22                               500           304.8             130               0                 Open   ;
 23                   20                   23                              2650            1016             130               0                 Open   ;
 24                   23                   24                              1230             762             130               0                 Open   ;
 25                   24                   25                              1300             762             130               0                 Open   ;
 26                   26                   25                               850             508             130               0                 Open   ;
 27                   27                   26                               300           304.8             130               0                 Open   ;
 28                   16                   27                               750           304.8             130               0                 Open   ;
 29                   23                   28                              1500           406.4             130               0                 Open   ;
 30                   28                   29                              2000           406.4             130               0                 Open   ;
 31                   29                   30                              1600           304.8             130               0                 Open   ;
 32                   30                   31                               150           304.8             130               0                 Open   ;
 33                   32                   31                               860           406.4             130               0                 Open   ;
 34                   25                   32                               950             508             130               0                 Open   ;

[PUMPS]
;ID                   Node1                Node2                Properties          

[VALVES]
;ID                   Node1                Node2                            Diameter Type              Setting           Minor Loss

[TAGS]
;type      name       tag       

[DEMANDS]
;ID        Demand     Pattern   

[STATUS]
;ID        Setting   

[PATTERNS]
;ID        Multipliers

Pattern_2 0.839119 0.749402 0.750648 0.636910 0.622950 0.619786
Pattern_2 0.542108 0.521458 0.537070 0.604388 0.581806 0.641190
Pattern_2 0.700297 0.752087 0.816535 0.847263 1.004346 1.092661
Pattern_2 1.193553 1.207831 1.296258 1.201502 1.344663 1.428380
Pattern_2 1.321431 1.215830 1.238531 1.332918 1.174689 1.182423
Pattern_2 1.110420 1.130568 1.117088 1.169497 1.082551 1.150151
Pattern_2 1.180998 1.248335 1.279981 1.252581 1.234752 1.308813
Pattern_2 1.293277 1.248790 1.141681 1.127850 0.942237 0.844520
Pattern_2 0.747207 0.693460 0.612556 0.536475 0.542602 0.486212
Pattern_2 0.485607 0.549952 0.512393 0.633530 0.746454 0.824228
Pattern_2 1.017131 1.128083 1.168748 1.358058 1.397716 1.529854
Pattern_2 1.606388 1.674061 1.795710 1.721817 1.654381 1.554103
Pattern_2 1.413759 1.461196 1.258403 1.216832 1.216298 1.127824
Pattern_2 1.164485 1.121522 1.050925 1.130818 1.063194 1.241483
Pattern_2 1.322588 1.252258 1.239725 1.337025 1.421981 1.429462
Pattern_2 1.316514 1.300741 1.261430 1.122837 0.976649 0.904088
Pattern_2 0.846467 0.735067 0.553425 0.559577 0.470789 0.510608
Pattern_2 0.499918 0.510966 0.558280 0.663407 0.793283 0.800528
Pattern_2 1.032453 1.117694 1.244300 1.170844 1.413013 1.435700
Pattern_2 1.572935 1.477172 1.575074 1.544447 1.545102 1.455105
Pattern_2 1.367496 1.392096 1.288451 1.332179 1.147526 1.177254
Pattern_2 1.089776 1.114044 1.074272 1.131461 1.207290 1.289161
Pattern_2 1.239324 1.308279 1.400688 1.279332 1.312722 1.358292
Pattern_2 1.379599 1.448982 1.283339 1.036418 0.978997 0.961917
Pattern_2 0.757994 0.758513 0.631955 0.559534 0.480774 0.455129
Pattern_2 0.493154 0.519271 0.597575 0.657283 0.739300 0.970816
Pattern_2 1.027987 1.108600 1.166216 1.272444 1.325856 1.488959
Pattern_2 1.608787 1.527938 1.518797 1.618519 1.595220 1.597601
Pattern_2 1.456998 1.430776 1.438471 1.362643 1.322287 1.177835
Pattern_2 1.212940 1.083976 1.097823 1.218628 1.227190 1.290138
Pattern_2 1.354868 1.403783 1.402236 1.340483 1.331228 1.438716
Pattern_2 1.359621 1.274238 1.306638 1.223544 1.072837 0.889796
Pattern_2 0.857977 0.778660 0.648112 0.623507 0.502161 0.492890
Pattern_2 0.493383 0.466995 0.630953 0.701523 0.681875 0.890252
Pattern_2 1.016179 1.166765 1.199415 1.365829 1.403218 1.535064
Pattern_2 1.526040 1.685335 1.453738 1.526205 1.549992 1.479096
Pattern_2 1.312359 1.280832 1.332406 1.206925 1.219568 1.287533
Pattern_2 1.236319 1.243286 1.236166 1.167980 1.230254 1.270747
Pattern_2 1.303066 1.353145 1.231943 1.359989 1.328981 1.344888
Pattern_2 1.450993 1.341490 1.273467 1.180083 1.123983 0.918333
Pattern_2 0.915032 0.779764 0.631333 0.546878 0.521076 0.475779
Pattern_2 0.518480 0.590024 0.663900 0.745078 0.836219 1.013107
Pattern_2 1.142238 1.342972 1.310654 1.608303 1.677845 1.665492
Pattern_2 1.772855 1.875666 1.824367 1.762458 1.727094 1.531900
Pattern_2 1.663215 1.615957 1.367858 1.473119 1.261904 1.249921
Pattern_2 1.255512 1.192246 1.265620 1.233990 1.362851 1.345042
Pattern_2 1.406838 1.417522 1.317513 1.316323 1.300582 1.456185
Pattern_2 1.151715 1.207038 1.194677 1.240207 1.125989 0.970183
Pattern_2 0.775237 0.882732 0.735446 0.636495 0.592181 0.607250
Pattern_2 0.565430 0.515102 0.617916 0.607420 0.625594 0.676192
Pattern_2 0.888725 0.900976 1.085181 1.223963 1.262464 1.275980
Pattern_2 1.287903 1.544981 1.410767 1.427126 1.600528 1.475860
Pattern_2 1.403934 1.328057 1.388467 1.335468 1.305087 1.359191
Pattern_2 1.210941 1.281740 1.304108 1.250678 1.259810 1.327212
Pattern_2 1.266959 1.341681 1.204644 1.367631 1.188486 1.232374
Pattern_2 1.120541 1.253610 1.105148 0.938925 0.873567 0.855681
Pattern_2 0.783453 0.751596 0.689801 0.690351 0.719961 0.592243
Pattern_2 0.581613 0.558678 0.515582 0.606657 0.623158 0.611322
Pattern_2 0.743322 0.731773 0.879155 0.897572 0.937652 1.176831
Pattern_2 1.238546 1.346593 1.179636 1.338637 1.305843 1.482582
Pattern_2 1.424180 1.387484 1.215141 1.308005 1.271369 1.072951
Pattern_2 1.102492 1.170772 1.108725 1.228138 1.233135 1.106764
Pattern_2 1.228988 1.234666 1.226522 1.203849 1.289237 1.115934
Pattern_2 1.342153 1.327906 1.125868 1.054582 1.013962 0.879278
Pattern_2 0.733119 0.688617 0.631419 0.537806 0.512601 0.506509
Pattern_2 0.531501 0.508848 0.570582 0.691508 0.783922 0.831863
Pattern_2 0.944421 1.002079 1.071573 1.427304 1.516960 1.617261
Pattern_2 1.615041 1.751451 1.842911 1.734315 1.846250 1.599014
Pattern_2 1.463753 1.455840 1.284771 1.221311 1.282155 1.183830
Pattern_2 1.131343 1.026135 1.105727 1.131085 1.195415 1.221704
Pattern_2 1.367697 1.209276 1.425985 1.387693 1.336703 1.354766
Pattern_2 1.540233 1.381935 1.249413 1.210343 1.119664 0.909111
Pattern_2 0.816684 0.654224 0.621537 0.518531 0.532513 0.530777
Pattern_2 0.484644 0.462954 0.576734 0.687438 0.747620 0.877174
Pattern_2 1.109103 1.098204 1.266730 1.216443 1.431631 1.602951
Pattern_2 1.506509 1.647315 1.570802 1.635408 1.578431 1.488378
Pattern_2 1.381974 1.352732 1.357219 1.139972 1.213918 1.296829
Pattern_2 1.206817 1.145350 1.129677 1.039039 1.236431 1.231946
Pattern_2 1.353364 1.490785 1.471475 1.404142 1.484108 1.597762
Pattern_2 1.342240 1.396931 1.299880 1.192614 1.086858 0.956396
Pattern_2 0.907054 0.767174 0.604084 0.556997 0.526886 0.481329
Pattern_2 0.557039 0.547950 0.583481 0.616855 0.824850 0.933304
Pattern_2 0.986762 1.125562 1.248764 1.483658 1.376324 1.342755
Pattern_2 1.706030 1.617814 1.558092 1.595683 1.607804 1.575896
Pattern_2 1.521519 1.426752 1.444220 1.375166 1.281677 1.207094
Pattern_2 1.297942 1.227153 1.265194 1.325509 1.240691 1.211427
Pattern_2 1.151914 1.363001 1.427386 1.385278 1.359996 1.301525
Pattern_2 1.350827 1.414357 1.326149 1.244823 1.069157 0.958179
Pattern_2 0.890632 0.772241 0.613202 0.530494 0.518528 0.488321
Pattern_2 0.480172 0.532404 0.586627 0.653006 0.794252 0.878834
Pattern_2 1.120757 1.233281 1.277995 1.458704 1.480281 1.642889
Pattern_2 1.539412 1.466805 1.557754 1.674232 1.508518 1.470251
Pattern_2 1.516689 1.328699 1.404486 1.234865 1.264370 1.172584
Pattern_2 1.207731 1.200698 1.020974 1.247296 1.391952 1.239948
Pattern_2 1.219881 1.283017 1.258399 1.401913 1.450568 1.512937
Pattern_2 1.468546 1.325567 1.321769 1.101540 1.085882 0.947154
Pattern_2 0.857124 0.760232 0.708625 0.538424 0.575532 0.468595
Pattern_2 0.552392 0.503639 0.680564 0.820548 0.879855 1.066865
Pattern_2 1.184260 1.281650 1.358343 1.616136 1.653616 1.836496
Pattern_2 1.842449 1.752945 1.871653 1.980651 1.715205 1.679616
Pattern_2 1.635365 1.538338 1.384304 1.380092 1.258332 1.320988
Pattern_2 1.240318 1.246837 1.311851 1.331826 1.432882 1.189008
Pattern_2 1.342344 1.418574 1.444926 1.506849 1.305037 1.448183
Pattern_2 1.321536 1.292856 1.227926 1.049938 1.067836 1.002122
Pattern_2 0.918838 0.830051 0.745029 0.729759 0.619624 0.598176
Pattern_2 0.554997 0.508418 0.573083 0.587538 0.633998 0.811435
Pattern_2 0.892150 0.857583 0.978594 1.268640 1.196691 1.331400
Pattern_2 1.495097 1.457095 1.586001 1.493147 1.516601 1.296972
Pattern_2 1.492670 1.302587 1.330920 1.350561 1.369858 1.417345
Pattern_2 1.319748 1.378701 1.373379 1.270824 1.225519 1.305434
Pattern_2 1.201472 1.257638 1.208062 1.312906 1.300111 1.273362
Pattern_2 1.116098 1.101129 1.144411 1.090708 0.898220 0.884964
Pattern_2 0.868802

Pattern_3 0.775820 0.808187 0.648004 0.607415 0.653904 0.611552
Pattern_3 0.608214 0.633449 0.619046 0.638634 0.584887 0.729012
Pattern_3 0.752713 0.731877 0.869050 0.866397 0.968380 0.979783
Pattern_3 1.227943 1.181217 1.265451 1.300909 1.357283 1.266482
Pattern_3 1.300802 1.396150 1.247961 1.204875 1.216539 1.209648
Pattern_3 1.059134 1.166222 1.286312 1.238014 1.195175 1.196515
Pattern_3 1.114951 1.159982 1.180228 1.251032 1.223993 1.178347
Pattern_3 1.125928 1.191856 1.171000 0.901383 0.882686 0.830093
Pattern_3 0.802590 0.675355 0.620295 0.591610 0.524840 0.546003
Pattern_3 0.528004 0.610977 0.596288 0.720719 0.779636 0.817982
Pattern_3 0.884827 1.010466 1.189835 1.202380 1.283371 1.517841
Pattern_3 1.442481 1.636801 1.411233 1.748741 1.545655 1.493136
Pattern_3 1.346071 1.426448 1.416510 1.322199 1.208443 1.162265
Pattern_3 1.112196 1.149499 1.109199 1.171623 1.140568 1.139650
Pattern_3 1.253041 1.279021 1.354788 1.327952 1.378030 1.351428
Pattern_3 1.281714 1.353448 1.113705 1.046413 0.998798 0.975026
Pattern_3 0.706207 0.680629 0.710566 0.620480 0.567932 0.601551
Pattern_3 0.619489 0.611613 0.654085 0.728519 0.846007 0.890750
Pattern_3 0.938570 1.078224 1.289595 1.343177 1.360314 1.363404
Pattern_3 1.536444 1.440230 1.452258 1.508861 1.552537 1.398284
Pattern_3 1.446017 1.468190 1.442896 1.352516 1.263909 1.237301
Pattern_3 1.102451 1.099416 1.132408 1.089939 1.206647 1.154844
Pattern_3 1.262929 1.218439 1.416490 1.185509 1.341796 1.319542
Pattern_3 1.286378 1.279920 1.203390 1.125905 1.010298 0.978246
Pattern_3 0.806110 0.780700 0.602026 0.635286 0.564984 0.556068
Pattern_3 0.552968 0.601917 0.621817 0.838200 0.808045 0.945085
Pattern_3 1.064463 0.985851 1.167601 1.357409 1.431664 1.291338
Pattern_3 1.542733 1.473245 1.516317 1.450261 1.481818 1.517070
Pattern_3 1.472936 1.413104 1.268283 1.249017 1.402485 1.317593
Pattern_3 1.192345 1.302068 1.175338 1.140080 1.277332 1.182996
Pattern_3 1.340256 1.356141 1.203815 1.297254 1.276185 1.344073
Pattern_3 1.346474 1.128045 1.178060 1.128138 1.077541 0.878666
Pattern_3 0.920123 0.692589 0.667092 0.703432 0.537861 0.591331
Pattern_3 0.556035 0.555775 0.622030 0.722275 0.796028 0.917359
Pattern_3 0.954822 1.076264 1.251732 1.291729 1.295281 1.432119
Pattern_3 1.506146 1.400234 1.526338 1.499790 1.389587 1.447794
Pattern_3 1.507410 1.348026 1.362617 1.350244 1.199893 1.242727
Pattern_3 1.247834 1.267463 1.183980 1.200601 1.211320 1.272812
Pattern_3 1.197749 1.307095 1.177016 1.305701 1.282948 1.244800
Pattern_3 1.289946 1.310570 1.089015 1.153188 1.056530 0.963237
Pattern_3 0.844043 0.810003 0.726890 0.675975 0.627599 0.586192
Pattern_3 0.597115 0.668668 0.672676 0.751125 0.889537 0.969153
Pattern_3 1.179273 1.242045 1.452818 1.437205 1.673885 1.629410
Pattern_3 1.627722 1.702251 1.796441 1.696887 1.696769 1.566129
Pattern_3 1.456993 1.462213 1.259329 1.465496 1.289091 1.244107
Pattern_3 1.347418 1.185778 1.282622 1.312015 1.455451 1.199766
Pattern_3 1.365507 1.295647 1.323547 1.266107 1.241768 1.250193
Pattern_3 1.196103 1.202946 1.141643 1.096751 1.077156 0.970362
Pattern_3 0.936766 0.879927 0.825135 0.741813 0.716778 0.603938
Pattern_3 0.631791 0.583517 0.639070 0.708182 0.725197 0.817698
Pattern_3 0.837911 0.930304 1.024105 1.230374 1.185762 1.300744
Pattern_3 1.187083 1.456934 1.437132 1.345039 1.508844 1.561546
Pattern_3 1.464917 1.420694 1.441123 1.397664 1.379207 1.257917
Pattern_3 1.276674 1.267196 1.226025 1.219712 1.417624 1.325054
Pattern_3 1.108490 1.208207 1.292328 1.198780 1.165293 1.149245
Pattern_3 1.126535 1.108465 1.028755 0.837443 0.932191 0.849472
Pattern_3 0.869730 0.739631 0.782076 0.690366 0.708371 0.713098
Pattern_3 0.621737 0.573479 0.605021 0.646716 0.643059 0.731387
Pattern_3 0.762424 0.805686 0.883960 0.939189 1.010741 1.088349
Pattern_3 1.168327 1.240833 1.211014 1.309998 1.324923 1.329096
Pattern_3 1.384819 1.340986 1.552288 1.072535 1.293992 1.138203
Pattern_3 1.221874 1.262533 1.123064 1.176906 1.150103 1.140836
Pattern_3 1.263901 1.290586 1.377397 1.136076 1.198499 1.183813
Pattern_3 1.199360 1.167481 1.109355 0.880581 0.964705 0.887025
Pattern_3 0.724777 0.700981 0.696991 0.589402 0.562507 0.559933
Pattern_3 0.561547 0.583641 0.633379 0.713350 0.771204 0.905098
Pattern_3 1.019587 1.123912 1.202606 1.299767 1.446005 1.427117
Pattern_3 1.441820 1.539869 1.708294 1.634145 1.408974 1.698412
Pattern_3 1.594674 1.469127 1.429070 1.354757 1.271869 1.158543
Pattern_3 1.180100 1.126860 1.116497 1.149879 1.243480 1.290749
Pattern_3 1.118134 1.298427 1.476044 1.348679 1.292801 1.274628
Pattern_3 1.217077 1.268581 1.149848 1.130728 0.974522 0.878069
Pattern_3 0.780843 0.720040 0.692031 0.631655 0.606115 0.580042
Pattern_3 0.545991 0.572019 0.679359 0.695506 0.789597 0.915256
Pattern_3 1.017083 0.971678 1.258361 1.179574 1.388475 1.449901
Pattern_3 1.534339 1.537648 1.476801 1.561129 1.453898 1.430870
Pattern_3 1.428646 1.456639 1.463385 1.214852 1.197453 1.195323
Pattern_3 1.106954 1.234202 1.227106 1.229743 1.198901 1.266231
Pattern_3 1.400979 1.370979 1.387430 1.401792 1.399456 1.375500
Pattern_3 1.350229 1.222226 1.190650 1.138955 1.109766 0.881069
Pattern_3 0.788392 0.753509 0.664625 0.597219 0.562108 0.545137
Pattern_3 0.595447 0.628316 0.673985 0.741982 0.847109 1.007812
Pattern_3 0.962329 1.153154 1.175559 1.367330 1.270890 1.469053
Pattern_3 1.550188 1.539766 1.666603 1.544323 1.482499 1.494799
Pattern_3 1.450456 1.439022 1.232630 1.244138 1.472566 1.395263
Pattern_3 1.338300 1.306292 1.219985 1.258322 1.369770 1.191184
Pattern_3 1.277894 1.361975 1.349295 1.279571 1.323996 1.343330
Pattern_3 1.312217 1.186233 1.173147 1.108859 1.125725 0.877843
Pattern_3 0.876981 0.824898 0.685754 0.649973 0.632124 0.530371
Pattern_3 0.606735 0.631364 0.673869 0.828248 0.829213 0.889281
Pattern_3 1.050921 1.140432 1.231959 1.318206 1.314321 1.481639
Pattern_3 1.502716 1.486577 1.428591 1.484189 1.381778 1.486220
Pattern_3 1.489845 1.370686 1.304799 1.406386 1.299694 1.325172
Pattern_3 1.287287 1.326026 1.255866 1.268019 1.209990 1.329582
Pattern_3 1.141344 1.471820 1.392761 1.401924 1.401796 1.387246
Pattern_3 1.452740 1.270425 1.167260 1.057309 1.060603 0.929358
Pattern_3 0.867685 0.808659 0.722236 0.687209 0.654888 0.666831
Pattern_3 0.629720 0.635332 0.699315 0.830672 0.908910 0.965762
Pattern_3 1.074924 1.245062 1.384547 1.448181 1.481661 1.643020
Pattern_3 1.784974 1.607557 1.513139 1.677941 1.785534 1.475691
Pattern_3 1.648467 1.515016 1.458184 1.535703 1.368279 1.350258
Pattern_3 1.346550 1.317602 1.343498 1.489007 1.455813 1.300743
Pattern_3 1.365676 1.557176 1.240154 1.417645 1.370067 1.293461
Pattern_3 1.244506 1.039624 1.191341 1.147776 1.100906 0.885512
Pattern_3 0.949746 0.796702 0.841544 0.728257 0.638898 0.655558
Pattern_3 0.682088 0.658634 0.621719 0.696690 0.698124 0.728561
Pattern_3 0.830400 0.876755 1.009274 1.141667 1.187677 1.366050
Pattern_3 1.415034 1.532841 1.594100 1.502785 1.472153 1.483540
Pattern_3 1.293438 1.411008 1.418541 1.396108 1.355748 1.341837
Pattern_3 1.324188 1.298350 1.339078 1.414120 1.352913 1.279793
Pattern_3 1.370234 1.286871 1.270088 1.231279 1.154766 1.191833
Pattern_3 1.035800 1.024816 0.903645 0.946839 0.847935 0.882996
Pattern_3 0.856505

Pattern_4 0.726297 0.734471 0.684110 0.616844 0.614326 0.600110
Pattern_4 0.574400 0.537495 0.553580 0.546448 0.490905 0.642114
Pattern_4 0.683030 0.658848 0.756591 0.839292 0.914564 0.868808
Pattern_4 1.096658 1.051135 1.161492 1.259864 1.321036 1.298880
Pattern_4 1.361890 1.344759 1.320084 1.132176 1.156455 1.196851
Pattern_4 1.138776 1.087029 1.080906 1.119932 1.052422 1.113528
Pattern_4 1.130860 1.218496 1.267974 1.214759 1.233582 1.182810
Pattern_4 1.172157 1.171573 1.026767 1.051392 0.975863 0.848845
Pattern_4 0.761392 0.687728 0.617195 0.543320 0.517867 0.483345
Pattern_4 0.518115 0.535109 0.563816 0.602311 0.776369 0.871173
Pattern_4 0.955080 1.078166 1.157845 1.153012 1.428183 1.393329
Pattern_4 1.502929 1.610905 1.567115 1.492899 1.546885 1.492789
Pattern_4 1.433547 1.355804 1.258523 1.186755 1.301015 1.228045
Pattern_4 1.098464 1.063215 1.046984 1.048936 1.221470 1.127183
Pattern_4 1.146303 1.212229 1.284357 1.279203 1.293676 1.356809
Pattern_4 1.315999 1.296322 1.209650 1.099571 1.036877 0.949261
Pattern_4 0.853944 0.781822 0.599003 0.621488 0.553295 0.529152
Pattern_4 0.521559 0.534662 0.533756 0.644875 0.753528 0.801712
Pattern_4 0.962184 1.041951 1.170424 1.329716 1.360464 1.423334
Pattern_4 1.575769 1.512537 1.684069 1.672392 1.448668 1.572585
Pattern_4 1.431367 1.373325 1.271020 1.151938 1.174765 1.103506
Pattern_4 1.185645 1.188790 1.248531 1.118119 1.200584 1.227529
Pattern_4 1.225722 1.314533 1.345067 1.212144 1.392873 1.353283
Pattern_4 1.297761 1.178543 1.168365 1.126863 1.066236 1.001147
Pattern_4 0.797478 0.694461 0.654889 0.596840 0.533372 0.513388
Pattern_4 0.538332 0.581136 0.614749 0.733342 0.849751 0.925483
Pattern_4 0.951738 1.042773 1.182303 1.302575 1.301987 1.267117
Pattern_4 1.457737 1.557058 1.584749 1.586945 1.460338 1.463268
Pattern_4 1.484832 1.348732 1.488395 1.275896 1.230789 1.268438
Pattern_4 1.270247 1.208884 1.268233 1.165243 1.237615 1.322190
Pattern_4 1.222881 1.248453 1.422297 1.310131 1.543084 1.370840
Pattern_4 1.272524 1.231188 1.199796 1.154476 1.024337 0.957828
Pattern_4 0.827494 0.670067 0.663691 0.614908 0.537136 0.524178
Pattern_4 0.522150 0.540412 0.588099 0.652181 0.816033 0.931177
Pattern_4 0.999486 1.070598 1.352113 1.399587 1.392730 1.392071
Pattern_4 1.487217 1.475391 1.347231 1.466039 1.454099 1.501822
Pattern_4 1.455760 1.307614 1.136047 1.370240 1.268258 1.226672
Pattern_4 1.239203 1.271461 1.124647 1.261087 1.287078 1.096929
Pattern_4 1.282614 1.355313 1.256574 1.458610 1.449109 1.476404
Pattern_4 1.253783 1.370293 1.176388 1.207396 0.984072 1.016443
Pattern_4 0.867301 0.745847 0.650904 0.614192 0.578348 0.565703
Pattern_4 0.534457 0.543714 0.670927 0.765671 0.826735 0.984850
Pattern_4 1.181048 1.164896 1.443312 1.602040 1.525441 1.671446
Pattern_4 1.698952 1.894906 1.811332 1.658799 1.719173 1.750757
Pattern_4 1.429465 1.545187 1.434049 1.420658 1.422266 1.331979
Pattern_4 1.225713 1.260030 1.261890 1.232032 1.301293 1.243235
Pattern_4 1.477943 1.311517 1.256295 1.377111 1.325483 1.356473
Pattern_4 1.204783 1.165927 1.141380 1.086499 1.024928 1.009705
Pattern_4 0.961095 0.847949 0.801203 0.669582 0.687234 0.596960
Pattern_4 0.603630 0.620995 0.629757 0.640714 0.712537 0.776659
Pattern_4 0.816731 0.894142 1.020863 1.030692 1.127496 1.299552
Pattern_4 1.379638 1.311635 1.514647 1.357209 1.254256 1.434314
Pattern_4 1.474985 1.386392 1.421194 1.306874 1.316530 1.349211
Pattern_4 1.366141 1.340799 1.364273 1.191900 1.305931 1.212391
Pattern_4 1.401740 1.338694 1.235699 1.378540 1.228894 1.175571
Pattern_4 1.109314 1.048855 0.987978 1.056077 0.910288 0.833045
Pattern_4 0.827367 0.746566 0.766661 0.655320 0.647092 0.596021
Pattern_4 0.545851 0.600391 0.533450 0.553358 0.596939 0.631520
Pattern_4 0.598062 0.750581 0.782250 0.950338 0.919619 0.994846
Pattern_4 1.170139 1.083515 1.282618 1.298381 1.242920 1.472457
Pattern_4 1.370406 1.390834 1.357426 1.173897 1.191560 1.240042
Pattern_4 1.222068 1.218381 1.125404 1.158451 1.141402 1.157618
Pattern_4 1.211630 1.292692 1.236362 1.265879 1.168898 1.324091
Pattern_4 1.280466 1.219563 1.180746 0.979652 1.010547 0.881972
Pattern_4 0.803644 0.706941 0.591293 0.593391 0.525435 0.523977
Pattern_4 0.517876 0.493855 0.576637 0.667269 0.759346 0.854018
Pattern_4 1.035101 1.051015 1.132655 1.324907 1.332910 1.301013
Pattern_4 1.597757 1.668601 1.716686 1.635694 1.587144 1.594558
Pattern_4 1.435846 1.524452 1.261877 1.283810 1.239422 1.263409
Pattern_4 1.060894 1.081403 1.141185 1.095861 1.150117 1.135785
Pattern_4 1.276683 1.149963 1.384677 1.416931 1.293817 1.397722
Pattern_4 1.414583 1.258168 1.270904 1.152724 1.091375 0.995824
Pattern_4 0.813851 0.781735 0.700786 0.619906 0.638620 0.576703
Pattern_4 0.545967 0.581858 0.640719 0.636526 0.746129 0.863043
Pattern_4 1.001973 1.150393 1.137531 1.328396 1.260267 1.381036
Pattern_4 1.487709 1.583704 1.674317 1.464750 1.506316 1.472785
Pattern_4 1.360838 1.362066 1.318596 1.244096 1.232752 1.240505
Pattern_4 1.194679 1.100831 1.176659 1.280392 1.276239 1.290185
Pattern_4 1.335697 1.380770 1.472030 1.308787 1.350212 1.287951
Pattern_4 1.388565 1.137276 1.164972 1.123929 0.989423 0.974624
Pattern_4 0.787921 0.720738 0.659823 0.599737 0.535893 0.519813
Pattern_4 0.600370 0.615700 0.539004 0.768715 0.862993 0.925216
Pattern_4 0.952362 1.178649 1.137743 1.335131 1.454822 1.453929
Pattern_4 1.433048 1.614691 1.639393 1.570037 1.457014 1.521779
Pattern_4 1.513086 1.376549 1.317281 1.319726 1.288232 1.267491
Pattern_4 1.281920 1.340552 1.306904 1.266347 1.094159 1.199251
Pattern_4 1.403685 1.356549 1.433300 1.408262 1.353331 1.312867
Pattern_4 1.281599 1.275110 1.264965 1.125730 0.998237 0.888217
Pattern_4 0.924959 0.790900 0.675840 0.606019 0.532797 0.538621
Pattern_4 0.470429 0.568768 0.578104 0.725400 0.795846 0.859416
Pattern_4 0.980982 1.141829 1.213120 1.264822 1.463454 1.476811
Pattern_4 1.527669 1.566167 1.559750 1.603822 1.547959 1.473937
Pattern_4 1.474793 1.334279 1.235912 1.282354 1.299697 1.294602
Pattern_4 1.240790 1.222065 1.347787 1.209454 1.239536 1.409461
Pattern_4 1.293074 1.439641 1.241955 1.429614 1.415788 1.219340
Pattern_4 1.348113 1.341311 1.264720 1.115790 1.063733 1.018691
Pattern_4 0.900417 0.813115 0.711618 0.621822 0.561023 0.565361
Pattern_4 0.536900 0.606541 0.713245 0.705439 0.853483 1.052130
Pattern_4 1.115569 1.330594 1.325654 1.371526 1.512842 1.698935
Pattern_4 1.628361 1.916628 1.805891 1.647371 1.867247 1.659042
Pattern_4 1.589929 1.446352 1.539735 1.314851 1.297624 1.354702
Pattern_4 1.326105 1.320645 1.353286 1.311519 1.314537 1.439135
Pattern_4 1.380209 1.366209 1.376302 1.245391 1.325999 1.298188
Pattern_4 1.331948 1.218072 1.206152 1.133235 1.129741 0.962337
Pattern_4 0.896779 0.853040 0.788626 0.654638 0.703162 0.636482