; Filename: ../Network_Originals/Hanoi_CMH.inp
; WNTR: 0.4.0
; Created: 2022-11-16 12:31:27
[TITLE]

[JUNCTIONS]
;ID                      Elevation       Demand Pattern                 
 2                                 30          247.22 Pattern_2                  ;
 3                                 30          236.11 Pattern_3                  ;
 4                                 30           36.11 Pattern_4                  ;
 5                                 30          201.39 Pattern_5                  ;
 6                                 30          279.17 Pattern_6                  ;
 7                                 30             375 Pattern_7                  ;
 8                                 30          152.78 Pattern_8                  ;
 9                                 30          145.83 Pattern_9                  ;
 10                                30          145.83 Pattern_10                 ;
 11                                30          138.89 Pattern_11                 ;
 12                                30          155.56 Pattern_12                 ;
 13                                30          261.11 Pattern_13                 ;
 14                                30          170.83 Pattern_14                 ;
 15                                30           77.78 Pattern_15                 ;
 16                                30           86.11 Pattern_16                 ;
 17                                30          240.28 Pattern_17                 ;
 18                                30          373.61 Pattern_18                 ;
 19                                30           16.67 Pattern_19                 ;
 20                                30          354.17 Pattern_20                 ;
 21                                30          258.33 Pattern_21                 ;
 22                                30          134.72 Pattern_22                 ;
 23                                30          290.28 Pattern_23                 ;
 24                                30          227.78 Pattern_24                 ;
 25                                30           47.22 Pattern_25                 ;
 26                                30             250 Pattern_26                 ;
 27                                30          102.78 Pattern_27                 ;
 28                                30           80.56 Pattern_28                 ;
 29                                30             100 Pattern_29                 ;
 30                                30             100 Pattern_30                 ;
 31                                30           29.17 Pattern_31                 ;
 32                                30          223.61 Pattern_32                 ;

[RESERVOIRS]
;ID                                   Head                  Pattern
 1                                100                            ;

[TANKS]
;ID                              Elevation           Init Level            Min Level            Max Level             Diameter           Min Volume Volume Curve         Overflow            

[PIPES]
;ID                   Node1                Node2                              Length             Diameter            Roughness           Minor Loss               Status
 1                    1                    2                                100            1016             130               0                 Open   ;
 2                    2                    3                               1350            1016             130               0                 Open   ;
 3                    3                    4                                900            1016             130               0                 Open   ;
 4                    4                    5                               1150            1016             130               0                 Open   ;
 5                    5                    6                               1450            1016             130               0                 Open   ;
 6                    6                    7                                450            1016             130               0                 Open   ;
 7                    7                    8                                850            1016             130               0                 Open   ;
 8                    8                    9                                850            1016             130               0                 Open   ;
 9                    9                    10                               800            1016             130               0                 Open   ;
 10                   10                   11                               950             762             130               0                 Open   ;
 11                   11                   12                              1200             762             130               0                 Open   ;
 12                   12                   13                              3500           609.6             130               0                 Open   ;
 13                   10                   14                               800           406.4             130               0                 Open   ;
 14                   14                   15                               500           406.4             130               0                 Open   ;
 15                   15                   16                               550           304.8             130               0                 Open   ;
 16                   17                   16                              2730           406.4             130               0                 Open   ;
 17                   17                   18                              1750             508             130               0                 Open   ;
 18                   18                   19                               800           609.6             130               0                 Open   ;
 19                   19                   3                                400           609.6             130               0                 Open   ;
 20                   3                    20                              2200            1016             130               0                 Open   ;
 21                   20                   21                              1500             508             130               0                 Open   ;
 22                   21                   22                               500           304.8             130               0                 Open   ;
 23                   20                   23                              2650            1016             130               0                 Open   ;
 24                   23                   24                              1230             762             130               0                 Open   ;
 25                   24                   25                              1300             762             130               0                 Open   ;
 26                   26                   25                               850             508             130               0                 Open   ;
 27                   27                   26                               300           304.8             130               0                 Open   ;
 28                   16                   27                               750           304.8             130               0                 Open   ;
 29                   23                   28                              1500           406.4             130               0                 Open   ;
 30                   28                   29                              2000           406.4             130               0                 Open   ;
 31                   29                   30                              1600           304.8             130               0                 Open   ;
 32                   30                   31                               150           304.8             130               0                 Open   ;
 33                   32                   31                               860           406.4             130               0                 Open   ;
 34                   25                   32                               950             508             130               0                 Open   ;

[PUMPS]
;ID                   Node1                Node2                Properties          

[VALVES]
;ID                   Node1                Node2                            Diameter Type              Setting           Minor Loss

[TAGS]
;type      name       tag       

[DEMANDS]
;ID        Demand     Pattern   

[STATUS]
;ID        Setting   

[PATTERNS]
;ID        Multipliers

Pattern_2 0.815383 0.728894 0.753267 0.746135 0.590927 0.627434
Pattern_2 0.618431 0.563858 0.529661 0.573908 0.684901 0.620347
Pattern_2 0.709043 0.767349 0.821592 0.967967 1.012526 1.059424
Pattern_2 1.069423 1.246418 1.222117 1.265779 1.392381 1.400935
Pattern_2 1.420053 1.308104 1.297098 1.301552 1.256990 1.143887
Pattern_2 1.171351 1.255162 1.145361 1.119128 1.194171 1.114314
Pattern_2 1.190201 1.323268 1.273336 1.230706 1.188831 1.183476
Pattern_2 1.175024 1.202042 1.166526 1.009720 1.047498 0.855653
Pattern_2 0.792425 0.751255 0.658669 0.582106 0.521440 0.497945
Pattern_2 0.545877 0.573977 0.618892 0.705961 0.735380 0.884919
Pattern_2 0.920319 1.083093 1.210049 1.361831 1.392605 1.471144
Pattern_2 1.607219 1.662667 1.744633 1.568634 1.568461 1.560966
Pattern_2 1.523673 1.445646 1.270020 1.405633 1.303822 1.082961
Pattern_2 1.032573 1.009915 1.195957 1.095596 1.139744 1.155940
Pattern_2 1.191178 1.291600 1.438102 1.411640 1.409471 1.266155
Pattern_2 1.278501 1.200369 1.235390 1.134560 1.049597 0.932448
Pattern_2 0.834782 0.778774 0.695920 0.602061 0.579202 0.570780
Pattern_2 0.581376 0.611031 0.625564 0.688338 0.812934 0.799382
Pattern_2 0.929173 1.022993 1.062990 1.262776 1.425617 1.349355
Pattern_2 1.530241 1.517181 1.516327 1.478359 1.632876 1.646242
Pattern_2 1.486569 1.274845 1.299129 1.251680 1.290179 1.202099
Pattern_2 1.127552 1.081717 1.049695 1.160644 1.338534 1.263753
Pattern_2 1.220805 1.243683 1.281591 1.374287 1.421894 1.329128
Pattern_2 1.283755 1.330215 1.206343 1.219609 1.096575 0.941347
Pattern_2 0.804472 0.794942 0.689961 0.596621 0.608089 0.546612
Pattern_2 0.598497 0.567912 0.633325 0.740688 0.742940 0.886826
Pattern_2 1.057261 1.140442 1.146024 1.227116 1.378467 1.504381
Pattern_2 1.330124 1.536095 1.601697 1.646319 1.530540 1.523930
Pattern_2 1.430805 1.441916 1.386514 1.333729 1.355678 1.247817
Pattern_2 1.111245 1.171543 1.234375 1.207069 1.295576 1.266287
Pattern_2 1.348407 1.282810 1.275950 1.231725 1.370729 1.336904
Pattern_2 1.329718 1.302560 1.192661 1.215985 1.084583 0.967483
Pattern_2 0.836935 0.727586 0.599524 0.561409 0.632279 0.534815
Pattern_2 0.579882 0.619304 0.708619 0.746467 0.839363 0.902482
Pattern_2 1.072903 1.138178 1.268537 1.346383 1.421288 1.498702
Pattern_2 1.462038 1.501787 1.619307 1.417043 1.465556 1.456798
Pattern_2 1.397071 1.419905 1.224840 1.317628 1.254825 1.226021
Pattern_2 1.079451 1.229546 1.242101 1.207086 1.312838 1.283649
Pattern_2 1.402607 1.297697 1.368495 1.445488 1.291471 1.361923
Pattern_2 1.288132 1.118543 1.164059 1.163945 1.181160 0.990669
Pattern_2 0.880912 0.780860 0.681137 0.692158 0.606340 0.604144
Pattern_2 0.561146 0.604460 0.664328 0.725237 0.898418 0.995488
Pattern_2 1.223650 1.203584 1.531257 1.483391 1.575390 1.602518
Pattern_2 1.726316 1.827548 1.704963 1.700282 1.598893 1.505269
Pattern_2 1.563000 1.559701 1.446573 1.375315 1.354673 1.397247
Pattern_2 1.359512 1.343811 1.252790 1.327894 1.238618 1.328947
Pattern_2 1.374969 1.326613 1.437221 1.420628 1.243972 1.294243
Pattern_2 1.335262 1.214205 1.165459 1.132581 1.045615 0.889357
Pattern_2 0.908478 0.909733 0.798664 0.700627 0.638901 0.687484
Pattern_2 0.652920 0.620167 0.613201 0.657849 0.654767 0.727700
Pattern_2 0.846386 0.948591 0.962480 1.100573 1.207547 1.299423
Pattern_2 1.275358 1.426326 1.431449 1.528197 1.455369 1.503228
Pattern_2 1.392254 1.416791 1.257710 1.455492 1.392034 1.362364
Pattern_2 1.364275 1.335355 1.282030 1.358926 1.494204 1.285749
Pattern_2 1.231893 1.246626 1.222555 1.249153 1.175082 1.162029
Pattern_2 1.088791 1.097233 1.090383 0.945933 0.887099 0.947392
Pattern_2 0.819353 0.726059 0.751095 0.760556 0.700035 0.629250
Pattern_2 0.602877 0.657221 0.629698 0.596674 0.610114 0.644106
Pattern_2 0.725814 0.771501 0.800485 0.864565 0.995119 1.120593
Pattern_2 1.156344 1.334205 1.235606 1.358087 1.233073 1.348079
Pattern_2 1.326346 1.357568 1.346260 1.277664 1.223701 1.199849
Pattern_2 1.102387 1.167461 1.152119 1.132012 1.166398 1.109591
Pattern_2 1.222788 1.294333 1.222853 1.283462 1.280519 1.219922
Pattern_2 1.202049 1.094988 1.035624 0.961352 1.010164 0.932194
Pattern_2 0.741385 0.735727 0.621279 0.642974 0.576869 0.519387
Pattern_2 0.561690 0.571195 0.622841 0.654137 0.768879 0.842777
Pattern_2 0.997260 1.105394 1.281869 1.337629 1.346477 1.495544
Pattern_2 1.426046 1.549033 1.511207 1.596045 1.717521 1.620071
Pattern_2 1.423322 1.406231 1.395614 1.301377 1.209654 1.249233
Pattern_2 1.088956 1.089202 1.140690 1.146007 1.191910 1.228239
Pattern_2 1.247342 1.269819 1.432045 1.372738 1.261921 1.384171
Pattern_2 1.330842 1.320675 1.297829 1.111347 1.187953 0.884765
Pattern_2 0.821335 0.779864 0.741136 0.608058 0.583925 0.551777
Pattern_2 0.622561 0.552789 0.653594 0.713915 0.824766 0.927261
Pattern_2 1.003842 1.098477 1.228758 1.223649 1.371259 1.530373
Pattern_2 1.390603 1.623374 1.467768 1.461639 1.551444 1.452616
Pattern_2 1.409005 1.437784 1.205828 1.275843 1.191767 1.257888
Pattern_2 1.068048 1.110779 1.113914 1.158175 1.187509 1.351136
Pattern_2 1.254978 1.306653 1.371145 1.405153 1.467019 1.408037
Pattern_2 1.238307 1.315552 1.124088 1.149211 0.998603 0.922305
Pattern_2 0.912755 0.745825 0.666066 0.614391 0.590933 0.535271
Pattern_2 0.562238 0.560434 0.689568 0.720834 0.733036 0.843553
Pattern_2 1.019403 1.214551 1.232645 1.295963 1.361753 1.447612
Pattern_2 1.459095 1.583286 1.700991 1.561387 1.550395 1.509609
Pattern_2 1.515637 1.512542 1.358782 1.491701 1.266650 1.318319
Pattern_2 1.202315 1.412388 1.275549 1.261591 1.460267 1.206180
Pattern_2 1.305399 1.255174 1.277497 1.333892 1.226152 1.438128
Pattern_2 1.348645 1.246437 1.217992 1.124550 1.101148 0.935182
Pattern_2 0.841630 0.811347 0.727388 0.644985 0.597674 0.580275
Pattern_2 0.601023 0.607926 0.683932 0.685345 0.801491 0.914397
Pattern_2 0.950192 1.081066 1.277992 1.323161 1.514130 1.460350
Pattern_2 1.512178 1.622311 1.586764 1.463101 1.543130 1.495631
Pattern_2 1.340966 1.370637 1.397056 1.362837 1.357050 1.188270
Pattern_2 1.280784 1.322253 1.157685 1.126524 1.271255 1.383839
Pattern_2 1.246659 1.325251 1.376719 1.324753 1.411810 1.333668
Pattern_2 1.276018 1.217591 1.222005 1.171372 1.148609 1.008549
Pattern_2 0.919354 0.794015 0.681407 0.721542 0.606806 0.601972
Pattern_2 0.600499 0.643512 0.706070 0.811994 0.858601 1.109055
Pattern_2 1.126953 1.268169 1.527194 1.567997 1.645814 1.715295
Pattern_2 1.819212 1.690971 1.688774 1.622047 1.751295 1.681666
Pattern_2 1.667369 1.484435 1.440782 1.405123 1.428298 1.401760
Pattern_2 1.277678 1.303765 1.325240 1.276545 1.362154 1.365408
Pattern_2 1.383624 1.412168 1.322440 1.327100 1.331114 1.315238
Pattern_2 1.294658 1.272584 1.099902 1.226924 1.089577 0.943725
Pattern_2 0.899016 0.864723 0.799470 0.743986 0.609748 0.659864
Pattern_2 0.603768 0.611176 0.657914 0.705558 0.750063 0.849675
Pattern_2 0.847613 0.940371 1.008994 1.193123 1.140565 1.296752
Pattern_2 1.269804 1.371521 1.322743 1.442452 1.452380 1.517752
Pattern_2 1.438217 1.323195 1.387500 1.302494 1.427059 1.340522
Pattern_2 1.417080 1.240455 1.366513 1.321943 1.351603 1.351430
Pattern_2 1.383175 1.264314 1.308071 1.259171 1.193521 1.169551
Pattern_2 1.171043 1.087031 0.971188 0.909467 0.980150 0.904281
Pattern_2 0.798585

Pattern_3 0.706559 0.644050 0.708662 0.622572 0.594322 0.573273
Pattern_3 0.584019 0.553873 0.577866 0.614021 0.609292 0.622858
Pattern_3 0.708998 0.780964 0.799583 0.881304 0.911092 1.091978
Pattern_3 1.073224 1.277053 1.304461 1.378839 1.344822 1.331862
Pattern_3 1.242000 1.319104 1.283814 1.251338 1.227173 1.188654
Pattern_3 1.029647 1.160597 1.234939 1.160005 1.206452 1.208811
Pattern_3 1.102009 1.282989 1.229992 1.139395 1.303843 1.197894
Pattern_3 1.265934 1.144812 0.977881 0.959506 0.846977 0.903602
Pattern_3 0.797896 0.649582 0.598267 0.593860 0.518498 0.483032
Pattern_3 0.490634 0.558113 0.616588 0.619520 0.707297 0.810710
Pattern_3 1.030878 1.009937 1.188769 1.192352 1.311577 1.427968
Pattern_3 1.556722 1.559364 1.550768 1.619930 1.396293 1.378193
Pattern_3 1.444656 1.440459 1.337381 1.360642 1.199264 1.196533
Pattern_3 1.173176 1.179992 1.058279 1.174210 1.145483 1.172707
Pattern_3 1.259963 1.266975 1.355919 1.310579 1.416530 1.345650
Pattern_3 1.306041 1.241482 1.212842 1.097005 0.950771 0.894150
Pattern_3 0.817099 0.689962 0.622705 0.545754 0.527192 0.480017
Pattern_3 0.554349 0.549709 0.580819 0.643061 0.749244 0.782877
Pattern_3 0.863520 0.965532 1.082397 1.288137 1.247315 1.363912
Pattern_3 1.458221 1.458215 1.423774 1.397124 1.577505 1.458906
Pattern_3 1.368910 1.341448 1.425456 1.271234 1.254216 1.175477
Pattern_3 1.274216 1.183748 1.050966 1.130910 1.098551 1.272454
Pattern_3 1.334314 1.216186 1.290423 1.347823 1.414125 1.421282
Pattern_3 1.402223 1.192277 1.137050 1.062567 0.958323 0.885800
Pattern_3 0.767983 0.706765 0.599972 0.581452 0.547285 0.533466
Pattern_3 0.509240 0.557775 0.640084 0.661452 0.760956 0.890869
Pattern_3 0.991891 1.093074 1.157426 1.185761 1.348495 1.350219
Pattern_3 1.369050 1.503564 1.546057 1.485055 1.403185 1.451646
Pattern_3 1.447255 1.461519 1.448436 1.390226 1.351982 1.305298
Pattern_3 1.260747 1.295111 1.198204 1.283964 1.184082 1.281384
Pattern_3 1.332996 1.196292 1.320048 1.281885 1.289965 1.229391
Pattern_3 1.206659 1.263189 1.140055 1.069297 1.007414 0.984135
Pattern_3 0.754812 0.762696 0.595370 0.619401 0.558222 0.483772
Pattern_3 0.530262 0.585761 0.637753 0.628905 0.784832 0.911513
Pattern_3 0.993981 1.121402 1.164680 1.371285 1.443413 1.300171
Pattern_3 1.553819 1.487710 1.510956 1.382118 1.393629 1.450576
Pattern_3 1.421835 1.264010 1.376552 1.230079 1.258145 1.350631
Pattern_3 1.382316 1.283074 1.245633 1.213991 1.321412 1.198005
Pattern_3 1.222383 1.354821 1.469037 1.407820 1.301478 1.205914
Pattern_3 1.381102 1.346695 1.212451 1.220607 1.031190 0.901536
Pattern_3 0.805417 0.786118 0.715814 0.656238 0.578877 0.598932
Pattern_3 0.617311 0.581574 0.666275 0.786796 0.833575 0.963246
Pattern_3 1.066174 1.200801 1.484867 1.452946 1.570202 1.738508
Pattern_3 1.726067 1.720532 1.731821 1.610535 1.582543 1.746986
Pattern_3 1.489434 1.625965 1.514701 1.312041 1.483374 1.347707
Pattern_3 1.278926 1.321116 1.313137 1.222934 1.332023 1.341801
Pattern_3 1.217773 1.242166 1.387703 1.289323 1.305068 1.236981
Pattern_3 1.189308 1.217551 1.159338 1.099367 1.031528 0.869719
Pattern_3 0.838379 0.813406 0.764572 0.700764 0.655740 0.593142
Pattern_3 0.564050 0.564381 0.592795 0.578921 0.685707 0.693670
Pattern_3 0.779719 0.888385 0.968297 1.053905 1.144871 1.255378
Pattern_3 1.278179 1.426228 1.396736 1.469401 1.455555 1.450095
Pattern_3 1.457993 1.506693 1.402768 1.306023 1.284986 1.407035
Pattern_3 1.343929 1.455484 1.236739 1.418859 1.238305 1.419703
Pattern_3 1.362775 1.358331 1.267507 1.248156 1.204709 1.244460
Pattern_3 1.127140 1.070143 1.161610 0.993381 0.875549 0.815063
Pattern_3 0.783646 0.770827 0.683673 0.730609 0.637041 0.605001
Pattern_3 0.567068 0.564017 0.526793 0.610674 0.634912 0.705801
Pattern_3 0.704642 0.684406 0.781492 0.818416 0.932414 1.118100
Pattern_3 1.199552 1.305579 1.295012 1.301602 1.344623 1.374814
Pattern_3 1.411561 1.289683 1.281171 1.312851 1.278572 1.131643
Pattern_3 1.277424 1.213099 1.247257 1.100646 1.249290 1.182927
Pattern_3 1.326493 1.244045 1.237670 1.123263 1.315026 1.254195
Pattern_3 1.217626 1.082489 1.077821 0.950455 0.949839 0.854630
Pattern_3 0.734230 0.678185 0.654149 0.553497 0.561089 0.540075
Pattern_3 0.508224 0.577921 0.531411 0.625440 0.733739 0.848850
Pattern_3 0.988057 1.116181 1.137936 1.318248 1.481503 1.589283
Pattern_3 1.567772 1.699819 1.687705 1.655334 1.495394 1.623390
Pattern_3 1.399264 1.424222 1.487550 1.403790 1.370039 1.288186
Pattern_3 1.217383 1.207410 1.143932 1.088173 1.086810 1.209233
Pattern_3 1.186614 1.265388 1.196104 1.338065 1.347968 1.256817
Pattern_3 1.384832 1.119630 1.251064 1.215236 1.017811 0.944127
Pattern_3 0.814405 0.724666 0.635141 0.565646 0.536921 0.592062
Pattern_3 0.546380 0.524628 0.577542 0.704807 0.814924 0.828453
Pattern_3 0.975238 0.954665 1.210819 1.124307 1.286377 1.471033
Pattern_3 1.390081 1.535891 1.462417 1.483380 1.504800 1.531359
Pattern_3 1.367273 1.318646 1.323391 1.328373 1.250803 1.208480
Pattern_3 1.104374 1.147585 1.300414 1.129279 1.191089 1.369369
Pattern_3 1.290143 1.330479 1.397970 1.430426 1.325243 1.458352
Pattern_3 1.323229 1.347201 1.170790 1.121182 1.067954 0.922461
Pattern_3 0.781071 0.760441 0.705006 0.599380 0.514397 0.532712
Pattern_3 0.557839 0.565603 0.540973 0.719684 0.804706 0.885925
Pattern_3 0.987160 1.024145 1.359618 1.270925 1.410393 1.454752
Pattern_3 1.460656 1.399026 1.505259 1.402823 1.515070 1.460006
Pattern_3 1.626115 1.332219 1.419513 1.336637 1.304602 1.292673
Pattern_3 1.292593 1.333038 1.362254 1.360799 1.241061 1.342369
Pattern_3 1.239815 1.301648 1.459233 1.279477 1.302936 1.300482
Pattern_3 1.229447 1.341742 1.075778 1.214446 0.964759 0.906847
Pattern_3 0.873256 0.764539 0.674691 0.598134 0.551972 0.513376
Pattern_3 0.543291 0.544469 0.552010 0.774715 0.834766 0.887417
Pattern_3 0.927402 1.089758 1.118249 1.302218 1.464717 1.388940
Pattern_3 1.418868 1.468720 1.510402 1.538087 1.443206 1.455275
Pattern_3 1.400880 1.444404 1.339012 1.253944 1.407452 1.330222
Pattern_3 1.265819 1.410247 1.232311 1.351649 1.401106 1.292869
Pattern_3 1.263171 1.304162 1.364807 1.311060 1.261927 1.316463
Pattern_3 1.299237 1.265182 1.240219 1.101506 1.048979 0.909152
Pattern_3 0.864960 0.733454 0.656985 0.576874 0.537541 0.563371
Pattern_3 0.509501 0.636817 0.681510 0.715613 0.807975 1.114731
Pattern_3 1.122720 1.250704 1.325444 1.513425 1.723454 1.665432
Pattern_3 1.767465 1.759199 1.717606 1.747238 1.676782 1.462288
Pattern_3 1.648572 1.608618 1.562906 1.266280 1.359455 1.322461
Pattern_3 1.476221 1.296101 1.267801 1.351106 1.236479 1.377517
Pattern_3 1.364937 1.367756 1.367229 1.281642 1.425953 1.255107
Pattern_3 1.279987 1.172884 1.143179 1.038948 1.005370 0.840352
Pattern_3 0.888193 0.810330 0.789093 0.692604 0.627710 0.633891
Pattern_3 0.583275 0.568473 0.573803 0.637033 0.650590 0.723157
Pattern_3 0.828961 0.859383 1.016290 1.098229 1.081692 1.298335
Pattern_3 1.409375 1.338291 1.359140 1.661926 1.461777 1.385348
Pattern_3 1.388659 1.553091 1.458466 1.416755 1.368247 1.355925
Pattern_3 1.236255 1.393810 1.264024 1.337147 1.330244 1.325845
Pattern_3 1.188855 1.326802 1.207523 1.392657 1.260740 1.100454
Pattern_3 1.188499 1.134385 1.137740 0.891697 0.916814 0.845460
Pattern_3 0.763234

Pattern_4 0.730712 0.626093 0.681577 0.606283 0.571426 0.537458
Pattern_4 0.531188 0.452473 0.528065 0.504809 0.549809 0.602658
Pattern_4 0.650403 0.700173 0.805495 0.906019 0.995107 1.103098
Pattern_4 1.119628 1.090266 1.288222 1.297772 1.379426 1.304777
Pattern_4 1.275004 1.330957 1.247812 1.297856 1.218976 1.213781
Pattern_4 1.231569 1.342204 1.221325 1.120230 1.184708 1.122627
Pattern_4 1.247317 1.148394 1.212635 1.190203 1.234259 1.156217
Pattern_4 1.185893 1.125572 1.027158 0.976533 0.917710 0.785243
Pattern_4 0.689376 0.646009 0.555565 0.469108 0.461260 0.414865
Pattern_4 0.460305 0.462917 0.476738 0.591826 0.704791 0.797928
Pattern_4 0.907821 1.086897 1.219853 1.311948 1.443248 1.417346
Pattern_4 1.766005 1.669421 1.690223 1.644626 1.649632 1.679424
Pattern_4 1.662133 1.407965 1.427613 1.330291 1.159496 1.219795
Pattern_4 1.133509 1.175229 1.143735 1.220488 1.074278 1.264240
Pattern_4 1.235300 1.283875 1.286974 1.331407 1.427610 1.372241
Pattern_4 1.342179 1.241276 1.207335 1.119251 1.065361 0.940793
Pattern_4 0.819199 0.674838 0.609329 0.548852 0.502212 0.529953
Pattern_4 0.473890 0.523088 0.544571 0.660858 0.693971 0.848542
Pattern_4 0.963606 0.923143 1.201184 1.345512 1.447946 1.346855
Pattern_4 1.433718 1.569818 1.438008 1.495870 1.476582 1.606527
Pattern_4 1.382751 1.469256 1.371132 1.309378 1.225375 1.231599
Pattern_4 1.215052 1.232054 1.187034 1.072832 1.306644 1.298604
Pattern_4 1.293739 1.270414 1.249797 1.492828 1.421398 1.439736
Pattern_4 1.401256 1.180111 1.211329 1.111248 0.989681 0.909560
Pattern_4 0.820172 0.676325 0.601223 0.523949 0.493480 0.445865
Pattern_4 0.477839 0.514644 0.560517 0.686579 0.756143 0.881612
Pattern_4 1.019493 1.152687 1.354522 1.234447 1.392287 1.501474
Pattern_4 1.491843 1.578851 1.588115 1.445488 1.759278 1.682926
Pattern_4 1.474433 1.355242 1.349767 1.329646 1.354648 1.272500
Pattern_4 1.335498 1.218395 1.286849 1.362030 1.311211 1.408255
Pattern_4 1.202191 1.193920 1.258436 1.481900 1.418193 1.359035
Pattern_4 1.313420 1.264787 1.205548 1.125352 0.951784 0.900652
Pattern_4 0.816103 0.696292 0.614304 0.560912 0.508103 0.470123
Pattern_4 0.497742 0.540287 0.585736 0.662474 0.794478 0.874347
Pattern_4 1.064189 1.089067 1.208290 1.254596 1.435931 1.465648
Pattern_4 1.543974 1.528518 1.500356 1.487100 1.533822 1.389352
Pattern_4 1.509289 1.383607 1.322007 1.261037 1.294892 1.141086
Pattern_4 1.282320 1.327557 1.207997 1.301905 1.309647 1.227070
Pattern_4 1.424490 1.324989 1.277648 1.397196 1.399628 1.331429
Pattern_4 1.207064 1.267854 1.226761 1.139734 1.012678 0.913116
Pattern_4 0.881923 0.702679 0.635445 0.591045 0.589245 0.505418
Pattern_4 0.514066 0.525582 0.628876 0.724039 0.865173 1.072634
Pattern_4 1.138494 1.243536 1.393991 1.645556 1.611286 1.860720
Pattern_4 1.891044 1.946069 1.851843 1.838550 1.569859 1.631294
Pattern_4 1.584044 1.566966 1.574424 1.426833 1.310506 1.383057
Pattern_4 1.247161 1.409283 1.261126 1.377914 1.293552 1.360272
Pattern_4 1.356594 1.331223 1.277649 1.369098 1.359212 1.327605
Pattern_4 1.348641 1.370427 1.171612 1.034539 0.968501 0.983264
Pattern_4 0.930526 0.848100 0.761375 0.649317 0.590071 0.618181
Pattern_4 0.516407 0.568691 0.550009 0.576636 0.633291 0.679624
Pattern_4 0.850759 0.912496 0.961725 1.175278 1.143417 1.157761
Pattern_4 1.491642 1.431414 1.412337 1.501988 1.305406 1.564190
Pattern_4 1.439456 1.471959 1.397580 1.329417 1.234302 1.364137
Pattern_4 1.320269 1.205464 1.443181 1.329908 1.367456 1.289710
Pattern_4 1.258145 1.460011 1.210210 1.257259 1.324793 1.128235
Pattern_4 1.077983 0.992247 1.020927 0.978162 0.874053 0.842675
Pattern_4 0.765115 0.679776 0.623796 0.609547 0.537010 0.550573
Pattern_4 0.597278 0.558791 0.499720 0.512826 0.548319 0.618902
Pattern_4 0.673764 0.737027 0.865686 0.894659 0.945932 1.004936
Pattern_4 1.237603 1.292887 1.352121 1.438328 1.407168 1.380497
Pattern_4 1.353310 1.375061 1.483185 1.306242 1.313331 1.199641
Pattern_4 1.203394 1.264791 1.135682 1.243293 1.318572 1.207983
Pattern_4 1.271067 1.165508 1.219303 1.306343 1.285934 1.282144
Pattern_4 1.277386 1.311237 1.051228 0.920236 1.006481 0.800109
Pattern_4 0.678096 0.657571 0.538574 0.516421 0.508536 0.440838
Pattern_4 0.481927 0.484723 0.532030 0.597207 0.760276 0.829808
Pattern_4 0.955821 1.108206 1.212360 1.399120 1.563652 1.559827
Pattern_4 1.623084 1.862062 1.806990 1.664560 1.560565 1.684858
Pattern_4 1.583946 1.428585 1.451481 1.286554 1.224688 1.151434
Pattern_4 1.156077 1.063307 1.096696 1.137131 1.257194 1.150034
Pattern_4 1.227253 1.285481 1.329560 1.477322 1.356622 1.365820
Pattern_4 1.289667 1.379954 1.296137 1.222032 1.058482 0.965681
Pattern_4 0.820993 0.670147 0.669527 0.527030 0.494078 0.505412
Pattern_4 0.506191 0.500553 0.560084 0.671324 0.773274 0.805152
Pattern_4 1.012095 1.087152 1.199885 1.349172 1.349393 1.471369
Pattern_4 1.527394 1.542634 1.686524 1.553022 1.687380 1.469688
Pattern_4 1.503613 1.472265 1.310535 1.285876 1.357183 1.249404
Pattern_4 1.292720 1.099561 1.224886 1.246991 1.343671 1.232966
Pattern_4 1.350285 1.479528 1.347546 1.464439 1.492805 1.349706
Pattern_4 1.375009 1.421208 1.233540 1.143894 0.968900 0.910982
Pattern_4 0.743247 0.663582 0.624934 0.526048 0.531357 0.489696
Pattern_4 0.504377 0.499933 0.626447 0.702223 0.829693 0.884714
Pattern_4 1.011491 1.228648 1.218594 1.232499 1.356691 1.559814
Pattern_4 1.563833 1.576003 1.539796 1.553742 1.655917 1.513599
Pattern_4 1.475694 1.549501 1.434783 1.411970 1.371227 1.293243
Pattern_4 1.260728 1.172269 1.227032 1.209229 1.356794 1.368372
Pattern_4 1.343109 1.285339 1.409151 1.513457 1.480191 1.287472
Pattern_4 1.438799 1.354808 1.175914 0.992201 1.030052 0.896522
Pattern_4 0.829269 0.655111 0.630876 0.529429 0.500305 0.557609
Pattern_4 0.455373 0.529257 0.575024 0.710251 0.720502 0.947926
Pattern_4 0.943635 1.137632 1.229816 1.296377 1.487670 1.686787
Pattern_4 1.486437 1.570533 1.693602 1.482732 1.675368 1.545310
Pattern_4 1.487904 1.360850 1.371655 1.310875 1.316793 1.268149
Pattern_4 1.219328 1.168361 1.242760 1.332279 1.367183 1.218245
Pattern_4 1.363896 1.367278 1.580288 1.359907 1.441250 1.318746
Pattern_4 1.319023 1.225356 1.162038 1.078640 1.164507 0.893054
Pattern_4 0.839565 0.712705 0.699669 0.579690 0.529593 0.522619
Pattern_4 0.512915 0.553838 0.626831 0.752379 0.910224 0.983955
Pattern_4 1.257297 1.314053 1.500399 1.625387 1.640459 1.712146
Pattern_4 1.605973 1.755889 1.834320 1.877507 1.813842 1.554148
Pattern_4 1.769882 1.699346 1.610465 1.455830 1.315637 1.395716
Pattern_4 1.386651 1.410544 1.354543 1.430879 1.290585 1.370508
Pattern_4 1.442326 1.377678 1.237451 1.385744 1.501979 1.284046
Pattern_4 1.292523 1.237006 1.126750 1.203757 0.958898 0.925690
Pattern_4 0.872729 0.761037 0.707491 0.650568 0.597473 0.622934