; Filename: ../Network_Originals/Hanoi_CMH.inp
; WNTR: 0.4.0
; Created: 2022-11-16 12:23:42
[TITLE]

[JUNCTIONS]
;ID                      Elevation       Demand Pattern                 
 2                                 30          247.22 Pattern_2                  ;
 3                                 30          236.11 Pattern_3                  ;
 4                                 30           36.11 Pattern_4                  ;
 5                                 30          201.39 Pattern_5                  ;
 6                                 30          279.17 Pattern_6                  ;
 7                                 30             375 Pattern_7                  ;
 8                                 30          152.78 Pattern_8                  ;
 9                                 30          145.83 Pattern_9                  ;
 10                                30          145.83 Pattern_10                 ;
 11                                30          138.89 Pattern_11                 ;
 12                                30          155.56 Pattern_12                 ;
 13                                30          261.11 Pattern_13                 ;
 14                                30          170.83 Pattern_14                 ;
 15                                30           77.78 Pattern_15                 ;
 16                                30           86.11 Pattern_16                 ;
 17                                30          240.28 Pattern_17                 ;
 18                                30          373.61 Pattern_18                 ;
 19                                30           16.67 Pattern_19                 ;
 20                                30          354.17 Pattern_20                 ;
 21                                30          258.33 Pattern_21                 ;
 22                                30          134.72 Pattern_22                 ;
 23                                30          290.28 Pattern_23                 ;
 24                                30          227.78 Pattern_24                 ;
 25                                30           47.22 Pattern_25                 ;
 26                                30             250 Pattern_26                 ;
 27                                30          102.78 Pattern_27                 ;
 28                                30           80.56 Pattern_28                 ;
 29                                30             100 Pattern_29                 ;
 30                                30             100 Pattern_30                 ;
 31                                30           29.17 Pattern_31                 ;
 32                                30          223.61 Pattern_32                 ;

[RESERVOIRS]
;ID                                   Head                  Pattern
 1                                100                            ;

[TANKS]
;ID                              Elevation           Init Level            Min Level            Max Level             Diameter           Min Volume Volume Curve         Overflow            

[PIPES]
;ID                   Node1                Node2                              Length             Diameter            Roughness           Minor Loss               Status
 1                    1                    2                                100            1016             130               0                 Open   ;
 2                    2                    3                               1350            1016             130               0                 Open   ;
 3                    3                    4                                900            1016             130               0                 Open   ;
 4                    4                    5                               1150            1016             130               0                 Open   ;
 5                    5                    6                               1450            1016             130               0                 Open   ;
 6                    6                    7                                450            1016             130               0                 Open   ;
 7                    7                    8                                850            1016             130               0                 Open   ;
 8                    8                    9                                850            1016             130               0                 Open   ;
 9                    9                    10                               800            1016             130               0                 Open   ;
 10                   10                   11                               950             762             130               0                 Open   ;
 11                   11                   12                              1200             762             130               0                 Open   ;
 12                   12                   13                              3500           609.6             130               0                 Open   ;
 13                   10                   14                               800           406.4             130               0                 Open   ;
 14                   14                   15                               500           406.4             130               0                 Open   ;
 15                   15                   16                               550           304.8             130               0                 Open   ;
 16                   17                   16                              2730           406.4             130               0                 Open   ;
 17                   17                   18                              1750             508             130               0                 Open   ;
 18                   18                   19                               800           609.6             130               0                 Open   ;
 19                   19                   3                                400           609.6             130               0                 Open   ;
 20                   3                    20                              2200            1016             130               0                 Open   ;
 21                   20                   21                              1500             508             130               0                 Open   ;
 22                   21                   22                               500           304.8             130               0                 Open   ;
 23                   20                   23                              2650            1016             130               0                 Open   ;
 24                   23                   24                              1230             762             130               0                 Open   ;
 25                   24                   25                              1300             762             130               0                 Open   ;
 26                   26                   25                               850             508             130               0                 Open   ;
 27                   27                   26                               300           304.8             130               0                 Open   ;
 28                   16                   27                               750           304.8             130               0                 Open   ;
 29                   23                   28                              1500           406.4             130               0                 Open   ;
 30                   28                   29                              2000           406.4             130               0                 Open   ;
 31                   29                   30                              1600           304.8             130               0                 Open   ;
 32                   30                   31                               150           304.8             130               0                 Open   ;
 33                   32                   31                               860           406.4             130               0                 Open   ;
 34                   25                   32                               950             508             130               0                 Open   ;

[PUMPS]
;ID                   Node1                Node2                Properties          

[VALVES]
;ID                   Node1                Node2                            Diameter Type              Setting           Minor Loss

[TAGS]
;type      name       tag       

[DEMANDS]
;ID        Demand     Pattern   

[STATUS]
;ID        Setting   

[PATTERNS]
;ID        Multipliers

Pattern_2 0.744124 0.790756 0.718807 0.581600 0.532821 0.533605
Pattern_2 0.511367 0.477205 0.493993 0.512641 0.567720 0.580036
Pattern_2 0.714292 0.759620 0.857890 0.893599 1.005274 1.136465
Pattern_2 1.118978 1.202242 1.197498 1.336100 1.353189 1.378538
Pattern_2 1.381441 1.334601 1.384986 1.144791 1.257027 1.077961
Pattern_2 1.148301 1.201302 1.246768 1.159902 1.102493 1.225466
Pattern_2 1.235747 1.216091 1.149767 1.395434 1.283303 1.270203
Pattern_2 1.177359 1.164336 1.037956 1.156617 0.950308 0.868354
Pattern_2 0.759837 0.665195 0.595513 0.529467 0.491094 0.481909
Pattern_2 0.473043 0.481856 0.519363 0.621864 0.692352 0.858556
Pattern_2 0.936622 1.126408 1.332499 1.245747 1.549148 1.580096
Pattern_2 1.562926 1.757244 1.647806 1.583124 1.648635 1.596833
Pattern_2 1.608286 1.332212 1.374689 1.322160 1.244518 1.133121
Pattern_2 1.099194 1.126514 1.201061 1.024283 1.091139 1.232107
Pattern_2 1.200364 1.200018 1.256703 1.377624 1.377379 1.372982
Pattern_2 1.259965 1.229445 1.128314 1.053065 1.043654 0.811362
Pattern_2 0.812053 0.681830 0.644864 0.485002 0.457871 0.442759
Pattern_2 0.489018 0.433074 0.510141 0.641287 0.698024 0.750269
Pattern_2 0.932066 1.001398 1.204482 1.287386 1.410840 1.565940
Pattern_2 1.636808 1.506134 1.567470 1.586259 1.458224 1.365316
Pattern_2 1.424513 1.498754 1.408636 1.319830 1.227455 1.205372
Pattern_2 1.131855 1.150083 1.181165 1.312709 1.229876 1.294615
Pattern_2 1.323131 1.330829 1.434258 1.428635 1.561414 1.469511
Pattern_2 1.469780 1.273911 1.287905 1.138418 0.936741 0.890510
Pattern_2 0.793895 0.677551 0.607462 0.532432 0.511312 0.475028
Pattern_2 0.472240 0.475883 0.512093 0.619716 0.722658 0.922490
Pattern_2 1.014403 1.127030 1.163446 1.275325 1.445582 1.381697
Pattern_2 1.552150 1.619472 1.583220 1.535008 1.474413 1.654119
Pattern_2 1.583330 1.580099 1.560359 1.408239 1.322428 1.289949
Pattern_2 1.277043 1.276998 1.139988 1.185682 1.223435 1.341192
Pattern_2 1.232994 1.333650 1.337321 1.449194 1.417846 1.314103
Pattern_2 1.338720 1.343068 1.200949 1.172363 1.063480 0.915528
Pattern_2 0.852940 0.721631 0.594889 0.609712 0.470611 0.446081
Pattern_2 0.471835 0.499691 0.552394 0.635854 0.810045 0.801267
Pattern_2 1.073344 1.042238 1.159079 1.234561 1.481045 1.531320
Pattern_2 1.430006 1.527982 1.491618 1.571851 1.465185 1.527107
Pattern_2 1.369254 1.360433 1.339030 1.319202 1.401749 1.269706
Pattern_2 1.220634 1.262063 1.166439 1.128709 1.181101 1.317574
Pattern_2 1.215489 1.340772 1.329408 1.390070 1.391465 1.295521
Pattern_2 1.332148 1.324490 1.173067 1.097973 1.013144 0.902865
Pattern_2 0.784022 0.706792 0.649056 0.564861 0.538725 0.484441
Pattern_2 0.545083 0.577582 0.601805 0.680738 0.831606 0.983614
Pattern_2 1.142328 1.321048 1.464885 1.618094 1.470930 1.703449
Pattern_2 1.939173 1.752598 1.749869 1.706002 1.648393 1.564091
Pattern_2 1.599024 1.548322 1.412003 1.388894 1.526102 1.270930
Pattern_2 1.292684 1.278034 1.260653 1.281131 1.376216 1.231634
Pattern_2 1.286273 1.449599 1.470654 1.415517 1.432558 1.320595
Pattern_2 1.305257 1.169017 1.150181 1.049385 1.004206 1.025197
Pattern_2 0.871213 0.782738 0.763334 0.633782 0.618381 0.581062
Pattern_2 0.566623 0.581706 0.543690 0.555209 0.608644 0.751977
Pattern_2 0.955177 0.838653 1.015156 1.093896 1.278599 1.364128
Pattern_2 1.377190 1.545476 1.356197 1.422167 1.459623 1.419394
Pattern_2 1.577912 1.388493 1.425099 1.341776 1.465980 1.302194
Pattern_2 1.298227 1.253940 1.273074 1.334242 1.364472 1.306677
Pattern_2 1.459371 1.282577 1.318627 1.322340 1.187982 1.139319
Pattern_2 1.122642 0.989278 1.027571 0.925596 0.922811 0.820708
Pattern_2 0.790352 0.704688 0.683712 0.663287 0.597540 0.484794
Pattern_2 0.496915 0.520250 0.536767 0.482082 0.572300 0.684306
Pattern_2 0.620087 0.727278 0.873334 1.019624 1.016197 1.008325
Pattern_2 1.202558 1.300460 1.408643 1.412645 1.479286 1.344359
Pattern_2 1.434442 1.355404 1.315548 1.349768 1.232827 1.258582
Pattern_2 1.148208 1.136379 1.086915 1.191255 1.263328 1.214246
Pattern_2 1.274402 1.283065 1.200825 1.407267 1.277836 1.243887
Pattern_2 1.210961 1.142112 1.161339 0.999526 0.927719 0.782731
Pattern_2 0.727904 0.658696 0.590052 0.514001 0.464237 0.469686
Pattern_2 0.424269 0.513921 0.547897 0.648439 0.762626 0.792637
Pattern_2 0.933738 0.976362 1.163877 1.288258 1.376793 1.526118
Pattern_2 1.688720 1.590832 1.837698 1.606672 1.564499 1.708668
Pattern_2 1.609631 1.472657 1.376354 1.304330 1.405502 1.205840
Pattern_2 1.133450 1.133752 1.076701 1.072775 1.085555 1.271666
Pattern_2 1.236605 1.193801 1.389163 1.310337 1.342552 1.373681
Pattern_2 1.169232 1.330132 1.312735 1.094844 1.059319 0.904993
Pattern_2 0.782505 0.684140 0.591109 0.512644 0.461593 0.469007
Pattern_2 0.483581 0.472926 0.532455 0.631193 0.764665 0.818181
Pattern_2 0.930057 1.116957 1.248775 1.327411 1.308069 1.459207
Pattern_2 1.573441 1.567234 1.558951 1.645046 1.648337 1.512551
Pattern_2 1.384213 1.377218 1.375257 1.254800 1.204211 1.211306
Pattern_2 1.129079 1.132449 1.216193 1.159773 1.201798 1.138010
Pattern_2 1.291985 1.456500 1.477525 1.349101 1.375803 1.330325
Pattern_2 1.356633 1.223766 1.326306 1.088765 1.001817 0.931168
Pattern_2 0.799875 0.726807 0.613828 0.527900 0.434582 0.471804
Pattern_2 0.500937 0.511258 0.580874 0.695372 0.681254 0.879829
Pattern_2 1.009304 1.084266 1.222508 1.416800 1.333867 1.488992
Pattern_2 1.624124 1.761078 1.579819 1.770422 1.551043 1.496849
Pattern_2 1.555399 1.544230 1.403258 1.413014 1.377182 1.352125
Pattern_2 1.334853 1.268921 1.202859 1.229932 1.264414 1.157338
Pattern_2 1.248422 1.417256 1.375267 1.352407 1.371710 1.323429
Pattern_2 1.405986 1.243901 1.262151 1.052472 1.081741 0.939111
Pattern_2 0.840065 0.713925 0.617824 0.542631 0.533505 0.435483
Pattern_2 0.512085 0.507633 0.547147 0.698865 0.773621 0.861916
Pattern_2 0.953425 1.164234 1.347639 1.288511 1.506836 1.515881
Pattern_2 1.573813 1.488408 1.486977 1.576102 1.554740 1.539010
Pattern_2 1.452864 1.497196 1.405178 1.273700 1.278452 1.306812
Pattern_2 1.183727 1.115193 1.131830 1.271474 1.282446 1.257237
Pattern_2 1.289819 1.232036 1.386227 1.399739 1.342521 1.357600
Pattern_2 1.397257 1.310639 1.315780 1.243674 0.965381 0.979198
Pattern_2 0.827670 0.793309 0.699744 0.571642 0.556428 0.514761
Pattern_2 0.538100 0.582455 0.621909 0.775974 0.854376 1.013162
Pattern_2 1.160187 1.431589 1.306933 1.372001 1.702873 1.731014
Pattern_2 1.826605 1.827417 1.898560 1.734865 1.808758 1.709944
Pattern_2 1.552886 1.457445 1.512810 1.478714 1.377110 1.361766
Pattern_2 1.301483 1.317552 1.357772 1.144959 1.342958 1.361632
Pattern_2 1.288537 1.418269 1.410424 1.366319 1.457014 1.313311
Pattern_2 1.219830 1.154892 1.241892 1.103995 1.047737 0.944453
Pattern_2 0.879424 0.798384 0.692285 0.695664 0.579647 0.528750
Pattern_2 0.551200 0.544446 0.541401 0.606243 0.654740 0.746014
Pattern_2 0.861141 0.901941 1.034765 1.217139 1.192930 1.359928
Pattern_2 1.464528 1.500021 1.498397 1.558021 1.574241 1.569198
Pattern_2 1.414074 1.375330 1.498616 1.335557 1.283845 1.420774
Pattern_2 1.338271 1.265371 1.170891 1.401623 1.471281 1.394071
Pattern_2 1.287549 1.205858 1.342380 1.285737 1.286141 1.179276
Pattern_2 1.213099 1.029252 1.123426 0.986744 0.752048 0.792685
Pattern_2 0.761659

Pattern_3 0.760561 0.754110 0.647782 0.710745 0.637837 0.623686
Pattern_3 0.654553 0.633658 0.616924 0.593822 0.594902 0.674083
Pattern_3 0.656329 0.791207 0.863162 0.870263 0.987776 1.002300
Pattern_3 1.189906 1.167187 1.359367 1.292892 1.336702 1.380757
Pattern_3 1.266521 1.314258 1.198020 1.180822 1.272859 1.142992
Pattern_3 1.253083 1.163840 1.115044 1.151073 1.161307 1.253845
Pattern_3 1.155101 1.088707 1.275668 1.229207 1.236791 1.299194
Pattern_3 1.117357 1.138229 1.109311 0.986819 0.989906 0.869600
Pattern_3 0.854787 0.779013 0.687611 0.626910 0.612300 0.559514
Pattern_3 0.548252 0.534612 0.630442 0.645597 0.843254 0.840476
Pattern_3 0.910930 1.057872 1.167634 1.260148 1.349097 1.362722
Pattern_3 1.446254 1.648802 1.656266 1.678949 1.533284 1.473646
Pattern_3 1.313671 1.440262 1.325171 1.319802 1.240655 1.166857
Pattern_3 1.233783 1.224224 1.135043 1.115439 1.230184 1.111091
Pattern_3 1.310437 1.293452 1.357590 1.316070 1.350238 1.270443
Pattern_3 1.203663 1.188821 1.249141 1.049912 1.029546 0.921085
Pattern_3 0.884738 0.771098 0.710726 0.634237 0.609755 0.588805
Pattern_3 0.560265 0.586837 0.659582 0.701227 0.761366 0.878878
Pattern_3 0.947938 1.055580 1.210511 1.199122 1.348926 1.390390
Pattern_3 1.478683 1.553734 1.490249 1.487764 1.496777 1.380435
Pattern_3 1.521401 1.320685 1.172855 1.299751 1.197726 1.151330
Pattern_3 1.096184 1.137837 1.147291 1.127579 1.130163 1.240835
Pattern_3 1.350934 1.257331 1.333111 1.281473 1.464312 1.330999
Pattern_3 1.288457 1.203503 1.235249 1.139796 1.014071 0.972651
Pattern_3 0.791932 0.809986 0.663479 0.657439 0.569507 0.585995
Pattern_3 0.558001 0.601870 0.628117 0.725606 0.775946 0.981723
Pattern_3 0.964483 1.096467 1.195626 1.327005 1.352855 1.374024
Pattern_3 1.564614 1.363304 1.451528 1.572258 1.366522 1.406221
Pattern_3 1.498306 1.387566 1.355552 1.301173 1.302293 1.207303
Pattern_3 1.211907 1.303745 1.112069 1.251515 1.262190 1.255697
Pattern_3 1.216759 1.236290 1.318079 1.322311 1.444997 1.439822
Pattern_3 1.315577 1.375388 1.202465 1.142040 1.046688 0.923546
Pattern_3 0.952050 0.740996 0.690672 0.623635 0.617074 0.554565
Pattern_3 0.615313 0.631860 0.628851 0.716748 0.829616 0.941700
Pattern_3 1.020114 1.134001 1.191459 1.328034 1.327772 1.427663
Pattern_3 1.507509 1.463424 1.419675 1.545286 1.356252 1.416077
Pattern_3 1.423620 1.280030 1.308738 1.294231 1.193289 1.241585
Pattern_3 1.180845 1.186517 1.210049 1.200401 1.198818 1.378272
Pattern_3 1.365820 1.428916 1.354412 1.423660 1.236263 1.414673
Pattern_3 1.310847 1.220783 1.257703 1.044016 1.119501 1.030420
Pattern_3 0.953395 0.864174 0.730534 0.594731 0.640090 0.635975
Pattern_3 0.591692 0.662011 0.664013 0.787138 0.889707 1.020820
Pattern_3 1.062451 1.343692 1.467586 1.536189 1.623356 1.646115
Pattern_3 1.724808 1.695482 1.797000 1.760015 1.595840 1.515895
Pattern_3 1.494464 1.540759 1.376456 1.371287 1.434226 1.225238
Pattern_3 1.309438 1.301888 1.243004 1.341006 1.255012 1.345252
Pattern_3 1.364426 1.301527 1.393822 1.253312 1.309947 1.343883
Pattern_3 1.394717 1.267147 1.201705 1.122789 1.097634 0.920555
Pattern_3 0.855901 0.885606 0.778291 0.739007 0.697370 0.636165
Pattern_3 0.615951 0.616122 0.651395 0.594194 0.749950 0.848176
Pattern_3 0.807304 0.975154 0.992192 1.054659 1.174768 1.343703
Pattern_3 1.368552 1.341364 1.563899 1.441559 1.503320 1.391368
Pattern_3 1.373658 1.176636 1.351339 1.343896 1.310057 1.388214
Pattern_3 1.239665 1.402006 1.271910 1.305708 1.359933 1.224534
Pattern_3 1.400743 1.311319 1.377750 1.249356 1.214458 1.226248
Pattern_3 1.082510 1.019193 1.098453 0.961097 0.964788 0.897999
Pattern_3 0.846008 0.765840 0.708242 0.720092 0.635917 0.703561
Pattern_3 0.651542 0.568073 0.597317 0.640959 0.625219 0.619194
Pattern_3 0.697049 0.764094 0.808394 0.854984 1.026221 1.050991
Pattern_3 1.177374 1.293765 1.326234 1.393890 1.432584 1.328074
Pattern_3 1.302290 1.285047 1.290299 1.223669 1.277785 1.132279
Pattern_3 1.199684 1.265473 1.208258 1.179875 1.159526 1.342646
Pattern_3 1.199280 1.287567 1.221339 1.308647 1.176104 1.318503
Pattern_3 1.303641 1.158064 1.118837 1.012630 0.958312 0.854072
Pattern_3 0.820975 0.750892 0.751744 0.611162 0.525661 0.577065
Pattern_3 0.548628 0.601580 0.581637 0.711110 0.792057 0.899701
Pattern_3 1.043633 1.068097 1.173987 1.234200 1.400214 1.420355
Pattern_3 1.543931 1.593161 1.597009 1.565715 1.476942 1.459594
Pattern_3 1.506347 1.392105 1.351543 1.130751 1.276154 1.210488
Pattern_3 1.116451 1.229105 1.140415 1.179421 1.076041 1.187625
Pattern_3 1.387140 1.278079 1.334698 1.306354 1.242540 1.273812
Pattern_3 1.307314 1.318289 1.276946 1.090352 1.025651 0.878462
Pattern_3 0.877166 0.753017 0.721425 0.680173 0.596344 0.599357
Pattern_3 0.539572 0.611917 0.680739 0.729188 0.871415 0.921462
Pattern_3 0.859685 1.143067 1.267171 1.357042 1.352016 1.494772
Pattern_3 1.503317 1.655716 1.434089 1.506047 1.562651 1.434041
Pattern_3 1.394569 1.321736 1.399079 1.300049 1.249404 1.286693
Pattern_3 1.127098 1.156483 1.127632 1.116388 1.301811 1.358424
Pattern_3 1.443097 1.385714 1.357717 1.475225 1.499417 1.429412
Pattern_3 1.433667 1.258915 1.247615 1.215658 1.012300 0.997872
Pattern_3 0.838680 0.780704 0.680306 0.683766 0.585567 0.552143
Pattern_3 0.585255 0.531725 0.693859 0.729694 0.794485 0.954813
Pattern_3 1.001267 1.102432 1.246633 1.223592 1.305610 1.470537
Pattern_3 1.509786 1.554060 1.613551 1.424870 1.466066 1.548496
Pattern_3 1.449530 1.344947 1.429171 1.295684 1.326434 1.373754
Pattern_3 1.224378 1.301879 1.264743 1.295054 1.205546 1.236203
Pattern_3 1.459652 1.298195 1.454480 1.378546 1.510468 1.348152
Pattern_3 1.282632 1.249849 1.217119 1.095269 1.133024 0.959522
Pattern_3 0.894438 0.751065 0.718270 0.619631 0.588045 0.631016
Pattern_3 0.624647 0.563397 0.693428 0.774445 0.781199 0.879071
Pattern_3 0.979964 1.120391 1.316813 1.331065 1.263450 1.518883
Pattern_3 1.552956 1.526447 1.472605 1.443995 1.451963 1.474584
Pattern_3 1.483217 1.337555 1.336509 1.224637 1.203477 1.230654
Pattern_3 1.151522 1.277986 1.139290 1.198429 1.282461 1.291920
Pattern_3 1.277610 1.285527 1.305874 1.344569 1.492597 1.329502
Pattern_3 1.395911 1.290782 1.224023 1.151685 0.950382 0.963496
Pattern_3 0.968284 0.790077 0.700720 0.645402 0.618381 0.627627
Pattern_3 0.630185 0.648727 0.699537 0.807727 0.991530 0.978951
Pattern_3 1.064267 1.298836 1.464684 1.486195 1.561453 1.771638
Pattern_3 1.798541 1.792857 1.828950 1.613573 1.775376 1.619412
Pattern_3 1.566996 1.533855 1.662481 1.497422 1.371640 1.262939
Pattern_3 1.264333 1.218992 1.300599 1.292568 1.291724 1.377407
Pattern_3 1.374478 1.339735 1.576749 1.356388 1.303682 1.237279
Pattern_3 1.185629 1.274116 1.170343 1.205343 1.112785 1.026458
Pattern_3 0.942697 0.908130 0.790330 0.723382 0.654328 0.638577
Pattern_3 0.661898 0.638417 0.598776 0.691947 0.700761 0.802124
Pattern_3 0.858025 0.948240 1.027260 1.097758 1.170342 1.434515
Pattern_3 1.433309 1.330682 1.396738 1.518216 1.425973 1.498857
Pattern_3 1.452404 1.415742 1.318500 1.344938 1.421036 1.317739
Pattern_3 1.382884 1.220165 1.303143 1.352973 1.331334 1.311180
Pattern_3 1.399416 1.220793 1.338858 1.136035 1.192049 1.242541
Pattern_3 1.126237 1.023806 1.107435 0.929775 0.849227 0.864348
Pattern_3 0.942760

Pattern_4 0.808608 0.734461 0.677400 0.780680 0.657415 0.652921
Pattern_4 0.596929 0.663386 0.652331 0.634014 0.677836 0.719081
Pattern_4 0.787710 0.854567 0.872789 1.007076 0.978078 1.144138
Pattern_4 1.113096 1.202749 1.195155 1.228722 1.297410 1.349913
Pattern_4 1.291178 1.256416 1.212741 1.239990 1.204421 1.232959
Pattern_4 1.170483 1.155734 1.112016 1.155140 1.237057 1.092663
Pattern_4 1.119650 1.257620 1.140283 1.198410 1.227785 1.094165
Pattern_4 1.076720 1.017815 1.139513 1.066508 0.909304 0.872711
Pattern_4 0.829712 0.780131 0.688224 0.682140 0.570878 0.537918
Pattern_4 0.598167 0.593010 0.706063 0.764010 0.800078 0.926743
Pattern_4 0.985609 1.003431 1.202759 1.333057 1.428710 1.331627
Pattern_4 1.535164 1.570305 1.517402 1.500299 1.544743 1.565662
Pattern_4 1.493542 1.386655 1.357254 1.296561 1.286847 1.196547
Pattern_4 1.190619 1.162039 1.098824 1.120723 1.196024 1.140402
Pattern_4 1.233539 1.320806 1.241171 1.188964 1.183954 1.256908
Pattern_4 1.274198 1.199748 1.153538 1.135738 1.020287 0.874316
Pattern_4 0.856750 0.717142 0.755903 0.650160 0.597969 0.624808
Pattern_4 0.616695 0.659485 0.665700 0.789311 0.774695 0.832466
Pattern_4 0.979374 1.094713 1.177371 1.248001 1.515434 1.473848
Pattern_4 1.526831 1.491965 1.612809 1.714762 1.588706 1.397276
Pattern_4 1.423702 1.191578 1.314200 1.247653 1.331684 1.190753
Pattern_4 1.201934 1.046770 1.216605 1.247028 1.244226 1.306475
Pattern_4 1.254302 1.294303 1.327403 1.416753 1.278294 1.332054
Pattern_4 1.337641 1.249956 1.212179 1.117587 0.990358 0.902640
Pattern_4 0.838809 0.734242 0.690477 0.682842 0.624988 0.538127
Pattern_4 0.624117 0.638249 0.732218 0.703977 0.790155 0.873932
Pattern_4 1.029863 1.016103 1.217835 1.388636 1.309598 1.417693
Pattern_4 1.534773 1.670483 1.698750 1.536763 1.538305 1.418092
Pattern_4 1.489783 1.266021 1.409631 1.381435 1.322095 1.208025
Pattern_4 1.071615 1.260048 1.189543 1.308869 1.224745 1.296900
Pattern_4 1.255777 1.366007 1.277323 1.366405 1.378368 1.373417
Pattern_4 1.235443 1.258237 1.215044 0.984616 1.002855 0.885183
Pattern_4 0.868523 0.751228 0.761210 0.631868 0.616492 0.633775
Pattern_4 0.599483 0.602781 0.644503 0.745882 0.832603 0.876529
Pattern_4 1.062905 1.169018 1.237621 1.325614 1.309084 1.457020
Pattern_4 1.513667 1.538472 1.523956 1.505560 1.412223 1.493557
Pattern_4 1.473924 1.289058 1.418034 1.362312 1.182506 1.169771
Pattern_4 1.172498 1.173691 1.334633 1.306199 1.227376 1.291938
Pattern_4 1.236567 1.464053 1.321997 1.356835 1.297258 1.309706
Pattern_4 1.315514 1.135550 1.178238 1.195352 1.016418 0.999489
Pattern_4 0.847404 0.806982 0.786071 0.707872 0.632395 0.612565
Pattern_4 0.670580 0.623455 0.767400 0.819719 0.895969 1.087342
Pattern_4 1.171952 1.306072 1.355429 1.487405 1.467400 1.758954
Pattern_4 1.591518 1.575821 1.712755 1.744902 1.684859 1.584137
Pattern_4 1.522667 1.465813 1.336679 1.319566 1.382667 1.302713
Pattern_4 1.316606 1.504931 1.305775 1.310772 1.199155 1.313579
Pattern_4 1.366335 1.209859 1.233679 1.134124 1.344175 1.305077
Pattern_4 1.178546 1.164863 1.049732 1.083669 1.128525 0.948362
Pattern_4 0.886610 0.857193 0.757751 0.722064 0.639036 0.673030
Pattern_4 0.718086 0.680766 0.604038 0.706368 0.702123 0.796160
Pattern_4 0.884591 0.979875 1.037423 1.118105 1.309172 1.334638
Pattern_4 1.415953 1.381314 1.434931 1.581917 1.425722 1.344845
Pattern_4 1.327176 1.358947 1.372172 1.361245 1.315349 1.272842
Pattern_4 1.207455 1.314658 1.247150 1.215992 1.253778 1.249872
Pattern_4 1.275252 1.239422 1.281000 1.242400 1.266824 1.093125
Pattern_4 1.137867 1.067435 1.069906 1.023753 0.899854 0.771884
Pattern_4 0.822328 0.773667 0.804372 0.740984 0.702056 0.658327
Pattern_4 0.673629 0.617630 0.656717 0.692592 0.636706 0.824135
Pattern_4 0.806417 0.871261 0.823151 0.923782 1.068702 1.069383
Pattern_4 1.126184 1.294917 1.414408 1.363628 1.330112 1.267610
Pattern_4 1.449604 1.368179 1.278373 1.275246 1.167325 1.184892
Pattern_4 1.151395 1.241220 1.226006 1.172487 1.094586 1.217014
Pattern_4 1.223713 1.275253 1.302879 1.186691 1.216875 1.298109
Pattern_4 1.191755 1.178609 1.152789 1.035738 0.886906 0.895379
Pattern_4 0.792759 0.688176 0.736034 0.611813 0.599071 0.595277
Pattern_4 0.609122 0.621459 0.691496 0.764546 0.817105 0.927610
Pattern_4 1.002628 1.248652 1.305157 1.375202 1.212228 1.532004
Pattern_4 1.706684 1.610730 1.754102 1.566720 1.538648 1.549751
Pattern_4 1.476612 1.455180 1.429147 1.305836 1.205990 1.162422
Pattern_4 1.232879 1.222825 1.149438 1.166647 1.194204 1.207911
Pattern_4 1.158978 1.251132 1.356211 1.340782 1.324317 1.229471
Pattern_4 1.321283 1.233327 1.405321 1.174421 1.053759 0.950394
Pattern_4 0.882659 0.808550 0.718795 0.691030 0.584517 0.583489
Pattern_4 0.610021 0.653360 0.671739 0.767337 0.809405 0.933216
Pattern_4 0.956888 1.124539 1.296062 1.416940 1.357282 1.457511
Pattern_4 1.409354 1.539389 1.667575 1.507660 1.561396 1.458975
Pattern_4 1.558869 1.313573 1.380314 1.176503 1.315781 1.278524
Pattern_4 1.295113 1.277978 1.075736 1.232381 1.265964 1.268661
Pattern_4 1.276589 1.385178 1.372501 1.463634 1.476730 1.367988
Pattern_4 1.408047 1.328156 1.187108 1.203603 1.025805 0.909204
Pattern_4 0.851251 0.792366 0.761438 0.681398 0.621416 0.588372
Pattern_4 0.627509 0.624103 0.738459 0.801947 0.799232 1.004843
Pattern_4 0.976644 1.146505 1.228570 1.221512 1.444949 1.315854
Pattern_4 1.596763 1.540461 1.560843 1.688858 1.554405 1.430975
Pattern_4 1.359371 1.389877 1.315718 1.451840 1.244312 1.109038
Pattern_4 1.253413 1.243114 1.273201 1.162731 1.281681 1.291571
Pattern_4 1.223652 1.364115 1.447591 1.350143 1.389449 1.253595
Pattern_4 1.317808 1.294501 1.192308 1.215451 1.038733 0.959952
Pattern_4 0.863435 0.759328 0.731471 0.631191 0.649944 0.564125
Pattern_4 0.621911 0.719275 0.693155 0.736198 0.899350 0.961657
Pattern_4 1.046810 1.214416 1.179213 1.412474 1.530473 1.414277
Pattern_4 1.443944 1.498863 1.527634 1.487149 1.472748 1.460859
Pattern_4 1.350124 1.330458 1.391736 1.282204 1.222853 1.284450
Pattern_4 1.299489 1.287231 1.349593 1.244039 1.226382 1.306787
Pattern_4 1.352286 1.312109 1.206469 1.295288 1.286273 1.378237
Pattern_4 1.370633 1.305444 1.152870 1.188921 1.202658 0.996119
Pattern_4 0.864925 0.845499 0.732712 0.718307 0.660342 0.622606
Pattern_4 0.721146 0.677444 0.690701 0.797399 0.911561 1.088491
Pattern_4 1.228833 1.404895 1.398193 1.598881 1.577475 1.521120
Pattern_4 1.732530 1.535914 1.617858 1.669877 1.684651 1.506905
Pattern_4 1.483968 1.588725 1.444114 1.438463 1.415955 1.406211
Pattern_4 1.337943 1.281538 1.353230 1.353885 1.344556 1.395017
Pattern_4 1.384023 1.367069 1.346447 1.316407 1.223745 1.211591
Pattern_4 1.318317 1.214221 1.164437 1.112840 1.037701 0.961105
Pattern_4 0.957227 0.912817 0.798818 0.765997 0.691888 0.699280