; Filename: ../Network_Originals/Hanoi_CMH.inp
; WNTR: 0.4.0
; Created: 2022-11-16 12:31:38
[TITLE]

[JUNCTIONS]
;ID                      Elevation       Demand Pattern                 
 2                                 30          247.22 Pattern_2                  ;
 3                                 30          236.11 Pattern_3                  ;
 4                                 30           36.11 Pattern_4                  ;
 5                                 30          201.39 Pattern_5                  ;
 6                                 30          279.17 Pattern_6                  ;
 7                                 30             375 Pattern_7                  ;
 8                                 30          152.78 Pattern_8                  ;
 9                                 30          145.83 Pattern_9                  ;
 10                                30          145.83 Pattern_10                 ;
 11                                30          138.89 Pattern_11                 ;
 12                                30          155.56 Pattern_12                 ;
 13                                30          261.11 Pattern_13                 ;
 14                                30          170.83 Pattern_14                 ;
 15                                30           77.78 Pattern_15                 ;
 16                                30           86.11 Pattern_16                 ;
 17                                30          240.28 Pattern_17                 ;
 18                                30          373.61 Pattern_18                 ;
 19                                30           16.67 Pattern_19                 ;
 20                                30          354.17 Pattern_20                 ;
 21                                30          258.33 Pattern_21                 ;
 22                                30          134.72 Pattern_22                 ;
 23                                30          290.28 Pattern_23                 ;
 24                                30          227.78 Pattern_24                 ;
 25                                30           47.22 Pattern_25                 ;
 26                                30             250 Pattern_26                 ;
 27                                30          102.78 Pattern_27                 ;
 28                                30           80.56 Pattern_28                 ;
 29                                30             100 Pattern_29                 ;
 30                                30             100 Pattern_30                 ;
 31                                30           29.17 Pattern_31                 ;
 32                                30          223.61 Pattern_32                 ;

[RESERVOIRS]
;ID                                   Head                  Pattern
 1                                100                            ;

[TANKS]
;ID                              Elevation           Init Level            Min Level            Max Level             Diameter           Min Volume Volume Curve         Overflow            

[PIPES]
;ID                   Node1                Node2                              Length             Diameter            Roughness           Minor Loss               Status
 1                    1                    2                                100            1016             130               0                 Open   ;
 2                    2                    3                               1350            1016             130               0                 Open   ;
 3                    3                    4                                900            1016             130               0                 Open   ;
 4                    4                    5                               1150            1016             130               0                 Open   ;
 5                    5                    6                               1450            1016             130               0                 Open   ;
 6                    6                    7                                450            1016             130               0                 Open   ;
 7                    7                    8                                850            1016             130               0                 Open   ;
 8                    8                    9                                850            1016             130               0                 Open   ;
 9                    9                    10                               800            1016             130               0                 Open   ;
 10                   10                   11                               950             762             130               0                 Open   ;
 11                   11                   12                              1200             762             130               0                 Open   ;
 12                   12                   13                              3500           609.6             130               0                 Open   ;
 13                   10                   14                               800           406.4             130               0                 Open   ;
 14                   14                   15                               500           406.4             130               0                 Open   ;
 15                   15                   16                               550           304.8             130               0                 Open   ;
 16                   17                   16                              2730           406.4             130               0                 Open   ;
 17                   17                   18                              1750             508             130               0                 Open   ;
 18                   18                   19                               800           609.6             130               0                 Open   ;
 19                   19                   3                                400           609.6             130               0                 Open   ;
 20                   3                    20                              2200            1016             130               0                 Open   ;
 21                   20                   21                              1500             508             130               0                 Open   ;
 22                   21                   22                               500           304.8             130               0                 Open   ;
 23                   20                   23                              2650            1016             130               0                 Open   ;
 24                   23                   24                              1230             762             130               0                 Open   ;
 25                   24                   25                              1300             762             130               0                 Open   ;
 26                   26                   25                               850             508             130               0                 Open   ;
 27                   27                   26                               300           304.8             130               0                 Open   ;
 28                   16                   27                               750           304.8             130               0                 Open   ;
 29                   23                   28                              1500           406.4             130               0                 Open   ;
 30                   28                   29                              2000           406.4             130               0                 Open   ;
 31                   29                   30                              1600           304.8             130               0                 Open   ;
 32                   30                   31                               150           304.8             130               0                 Open   ;
 33                   32                   31                               860           406.4             130               0                 Open   ;
 34                   25                   32                               950             508             130               0                 Open   ;

[PUMPS]
;ID                   Node1                Node2                Properties          

[VALVES]
;ID                   Node1                Node2                            Diameter Type              Setting           Minor Loss

[TAGS]
;type      name       tag       

[DEMANDS]
;ID        Demand     Pattern   

[STATUS]
;ID        Setting   

[PATTERNS]
;ID        Multipliers

Pattern_2 0.881640 0.740072 0.777319 0.752861 0.676689 0.642726
Pattern_2 0.630502 0.618205 0.566030 0.607782 0.656493 0.680599
Pattern_2 0.746201 0.787722 0.775504 0.866806 0.920459 0.967171
Pattern_2 1.068430 1.249065 1.163854 1.229034 1.248235 1.281395
Pattern_2 1.312116 1.366081 1.369659 1.221359 1.150030 1.244929
Pattern_2 1.143292 1.192726 1.181443 1.182535 1.174476 1.296386
Pattern_2 1.294659 1.306666 1.266837 1.259056 1.231417 1.163835
Pattern_2 1.269067 1.146531 1.070089 1.005044 0.888531 0.908243
Pattern_2 0.745383 0.755146 0.657170 0.566936 0.538869 0.551530
Pattern_2 0.518261 0.543485 0.594378 0.681552 0.749156 0.838833
Pattern_2 0.899127 1.028525 1.178002 1.213392 1.367957 1.399792
Pattern_2 1.547871 1.507138 1.492538 1.470404 1.550256 1.505748
Pattern_2 1.486089 1.341444 1.304645 1.343225 1.291365 1.260255
Pattern_2 1.094911 1.122977 1.174675 1.170117 1.161996 1.206409
Pattern_2 1.228391 1.149677 1.217693 1.429240 1.364716 1.399247
Pattern_2 1.295855 1.190846 1.207815 1.066143 1.022794 1.014730
Pattern_2 0.828245 0.810270 0.641416 0.556456 0.610125 0.578276
Pattern_2 0.545912 0.609895 0.621726 0.706831 0.771671 0.854365
Pattern_2 0.947369 1.024838 1.097084 1.320190 1.168953 1.310506
Pattern_2 1.425760 1.359925 1.375190 1.404592 1.452001 1.471661
Pattern_2 1.441203 1.224258 1.305285 1.168923 1.204215 1.223512
Pattern_2 1.243314 1.085211 1.280719 1.220681 1.148609 1.339492
Pattern_2 1.300111 1.285760 1.365418 1.306606 1.432024 1.331589
Pattern_2 1.386084 1.394252 1.157222 1.062108 1.027010 0.959248
Pattern_2 0.813867 0.741433 0.675525 0.622565 0.601529 0.583291
Pattern_2 0.535757 0.625247 0.646693 0.726486 0.861616 0.826850
Pattern_2 1.004095 1.151967 1.215950 1.398898 1.271774 1.268834
Pattern_2 1.424226 1.510305 1.497199 1.453045 1.382903 1.380348
Pattern_2 1.368815 1.409185 1.331681 1.367653 1.319796 1.264286
Pattern_2 1.329862 1.185623 1.257803 1.245155 1.299029 1.240576
Pattern_2 1.273509 1.376184 1.296058 1.430002 1.341005 1.200992
Pattern_2 1.428853 1.262805 1.170321 1.103535 1.028778 0.929802
Pattern_2 0.861213 0.775643 0.636567 0.565183 0.548565 0.595582
Pattern_2 0.626243 0.588778 0.661974 0.746330 0.784092 0.881488
Pattern_2 0.983051 0.982682 1.203902 1.326846 1.437599 1.317578
Pattern_2 1.451679 1.462379 1.420414 1.369946 1.377405 1.278199
Pattern_2 1.361595 1.335383 1.269351 1.277222 1.282319 1.265039
Pattern_2 1.289432 1.263767 1.197085 1.194167 1.260650 1.261714
Pattern_2 1.321506 1.284633 1.302690 1.277180 1.286458 1.408836
Pattern_2 1.238709 1.295678 1.097938 1.061018 1.044479 0.937681
Pattern_2 0.827375 0.811803 0.744667 0.666641 0.661144 0.622773
Pattern_2 0.640708 0.660266 0.658878 0.778162 0.877704 0.913026
Pattern_2 1.168522 1.206878 1.337476 1.418822 1.529475 1.550369
Pattern_2 1.721447 1.610317 1.664520 1.561519 1.592240 1.423790
Pattern_2 1.217379 1.266786 1.285352 1.349815 1.258098 1.270038
Pattern_2 1.232540 1.297036 1.311658 1.210976 1.312412 1.389248
Pattern_2 1.163810 1.349437 1.288651 1.364552 1.278169 1.220909
Pattern_2 1.231978 1.255976 1.162487 1.171015 1.124710 0.980120
Pattern_2 0.957483 0.921975 0.796633 0.747845 0.648565 0.636778
Pattern_2 0.583746 0.606307 0.660434 0.626295 0.677998 0.752692
Pattern_2 0.832962 0.941331 0.972739 1.138933 1.194118 1.174861
Pattern_2 1.228485 1.452891 1.396480 1.367577 1.508842 1.465921
Pattern_2 1.273734 1.438094 1.320251 1.317100 1.331398 1.271047
Pattern_2 1.195382 1.310703 1.299211 1.284732 1.194113 1.301718
Pattern_2 1.295235 1.330062 1.357363 1.332321 1.279330 1.239059
Pattern_2 1.082998 1.054487 1.002396 1.100129 0.925335 0.941087
Pattern_2 0.890230 0.741049 0.759289 0.769633 0.652699 0.656441
Pattern_2 0.661854 0.564035 0.602444 0.636737 0.690612 0.681616
Pattern_2 0.688387 0.727692 0.870037 0.903255 0.891948 1.050502
Pattern_2 1.090656 1.245862 1.172760 1.290100 1.326077 1.303704
Pattern_2 1.323957 1.305418 1.218796 1.393851 1.277092 1.194133
Pattern_2 1.242527 1.337760 1.222777 1.092434 1.083113 1.204945
Pattern_2 1.336991 1.353308 1.252009 1.361963 1.270611 1.181183
Pattern_2 1.262208 1.245672 1.232544 1.012110 0.866685 0.839033
Pattern_2 0.809321 0.731387 0.631440 0.580878 0.614901 0.509871
Pattern_2 0.544797 0.624376 0.623932 0.631265 0.694041 0.840554
Pattern_2 1.019838 1.081831 1.252711 1.303579 1.324908 1.457812
Pattern_2 1.363467 1.452394 1.650771 1.538351 1.625820 1.616220
Pattern_2 1.390119 1.363464 1.315324 1.305808 1.337591 1.126971
Pattern_2 1.162892 1.170364 1.185944 1.143752 1.124742 1.206538
Pattern_2 1.240617 1.210171 1.261384 1.309043 1.223829 1.382493
Pattern_2 1.360983 1.336578 1.344419 1.217785 1.008921 0.878074
Pattern_2 0.849184 0.737285 0.726837 0.627820 0.633511 0.572020
Pattern_2 0.583731 0.600421 0.639662 0.702667 0.811377 0.864187
Pattern_2 0.934397 1.026795 1.164309 1.280179 1.372168 1.309986
Pattern_2 1.457205 1.543524 1.474536 1.477709 1.329615 1.514146
Pattern_2 1.299659 1.512179 1.239918 1.390417 1.246453 1.180012
Pattern_2 1.238983 1.172628 1.144362 1.129327 1.240199 1.206860
Pattern_2 1.271343 1.320614 1.424939 1.321009 1.362349 1.318777
Pattern_2 1.239556 1.277296 1.179407 1.190054 1.023622 0.943358
Pattern_2 0.852980 0.772368 0.611016 0.713540 0.601795 0.549865
Pattern_2 0.650493 0.575128 0.679988 0.720244 0.773589 0.948779
Pattern_2 0.966810 1.093470 1.183448 1.383028 1.408677 1.340163
Pattern_2 1.547713 1.504038 1.385494 1.453768 1.459753 1.396797
Pattern_2 1.433243 1.414063 1.355593 1.403010 1.341939 1.414172
Pattern_2 1.306061 1.335371 1.201725 1.338072 1.303534 1.314228
Pattern_2 1.217323 1.398391 1.477934 1.348434 1.418516 1.351555
Pattern_2 1.306271 1.226227 1.156276 1.172376 0.991515 0.905081
Pattern_2 0.804297 0.737515 0.691873 0.616710 0.650062 0.569614
Pattern_2 0.577399 0.616993 0.699367 0.700172 0.771934 0.825566
Pattern_2 1.092234 1.174207 1.281750 1.304677 1.311939 1.327498
Pattern_2 1.462422 1.453178 1.520181 1.512606 1.500082 1.407354
Pattern_2 1.372884 1.417511 1.334593 1.214220 1.340276 1.215713
Pattern_2 1.228561 1.266732 1.438811 1.221770 1.265985 1.344584
Pattern_2 1.337244 1.298784 1.255656 1.403122 1.454264 1.367270
Pattern_2 1.376911 1.261760 1.252681 1.104017 0.991372 0.958563
Pattern_2 0.959687 0.806695 0.711185 0.685811 0.607300 0.579659
Pattern_2 0.608378 0.628874 0.671487 0.792065 0.915153 0.988447
Pattern_2 1.107083 1.286883 1.318840 1.453799 1.473988 1.769972
Pattern_2 1.822849 1.630241 1.559160 1.635512 1.535289 1.464460
Pattern_2 1.677458 1.533197 1.436992 1.280465 1.288060 1.399087
Pattern_2 1.279484 1.198172 1.364459 1.327096 1.375438 1.373426
Pattern_2 1.306891 1.271496 1.270695 1.411000 1.272978 1.322260
Pattern_2 1.299829 1.277854 1.219538 1.099435 1.014394 0.957349
Pattern_2 0.917493 0.825519 0.849690 0.745345 0.659783 0.641667
Pattern_2 0.621981 0.620848 0.651226 0.694572 0.688523 0.819813
Pattern_2 0.845636 0.975014 0.974692 0.993622 1.220563 1.191805
Pattern_2 1.359366 1.301558 1.393743 1.420099 1.471389 1.294989
Pattern_2 1.556823 1.356590 1.379914 1.442813 1.287900 1.441418
Pattern_2 1.302931 1.356944 1.427229 1.243784 1.115810 1.395524
Pattern_2 1.537987 1.366797 1.279665 1.265097 1.264159 1.163517
Pattern_2 1.218182 1.165691 1.095056 0.991322 1.005804 0.789670
Pattern_2 0.839584

Pattern_3 0.783051 0.673041 0.603847 0.618772 0.602514 0.538860
Pattern_3 0.550944 0.548085 0.571729 0.567356 0.605238 0.647543
Pattern_3 0.714670 0.796634 0.921380 0.940063 0.934827 1.001017
Pattern_3 1.202995 1.223985 1.330682 1.256563 1.456113 1.330491
Pattern_3 1.340227 1.301384 1.266021 1.274549 1.195314 1.233427
Pattern_3 1.142798 1.085125 1.035139 1.157966 1.131113 1.172061
Pattern_3 1.114657 1.296901 1.103202 1.263582 1.268119 1.197096
Pattern_3 1.180757 1.119522 1.163897 1.023282 0.943304 0.820203
Pattern_3 0.747110 0.667985 0.601368 0.563024 0.502514 0.486529
Pattern_3 0.486713 0.496117 0.513339 0.605429 0.668239 0.835408
Pattern_3 1.029531 1.010740 1.171377 1.273519 1.396556 1.564487
Pattern_3 1.691405 1.559746 1.760201 1.751807 1.715170 1.466263
Pattern_3 1.438484 1.455061 1.392191 1.316908 1.291633 1.083071
Pattern_3 1.192355 1.175555 1.181848 1.107650 1.196604 1.214995
Pattern_3 1.344350 1.173449 1.281493 1.402677 1.331090 1.358117
Pattern_3 1.279140 1.234592 1.112375 1.136871 1.018539 0.881148
Pattern_3 0.777723 0.730456 0.590544 0.518575 0.517056 0.484130
Pattern_3 0.438661 0.518864 0.564998 0.622629 0.731770 0.771463
Pattern_3 0.955810 1.059334 1.132614 1.351433 1.395501 1.633681
Pattern_3 1.406419 1.555284 1.531974 1.548933 1.609409 1.536205
Pattern_3 1.424410 1.316849 1.274562 1.212888 1.177698 1.241762
Pattern_3 1.138891 1.287217 1.149230 1.141228 1.168971 1.149343
Pattern_3 1.391468 1.267424 1.470045 1.363262 1.300316 1.383192
Pattern_3 1.214470 1.301852 1.260782 1.122363 1.044850 0.942282
Pattern_3 0.805501 0.656484 0.607391 0.562234 0.484892 0.468616
Pattern_3 0.442760 0.497311 0.565587 0.680640 0.781372 0.928297
Pattern_3 0.883556 1.058102 1.279853 1.325043 1.443997 1.464943
Pattern_3 1.570133 1.480012 1.602458 1.562103 1.409955 1.596338
Pattern_3 1.529441 1.494041 1.308841 1.321949 1.242690 1.182752
Pattern_3 1.140076 1.228220 1.179383 1.214382 1.288124 1.162919
Pattern_3 1.237155 1.334832 1.296704 1.392436 1.426880 1.331806
Pattern_3 1.355562 1.175683 1.073972 1.081388 1.036763 0.875172
Pattern_3 0.836760 0.677633 0.645565 0.530325 0.510400 0.483717
Pattern_3 0.481799 0.507267 0.569513 0.673154 0.776753 0.851123
Pattern_3 1.056838 1.017148 1.241991 1.322229 1.548621 1.460586
Pattern_3 1.686569 1.517454 1.514744 1.407586 1.443185 1.453195
Pattern_3 1.275063 1.385647 1.233942 1.315252 1.256198 1.257752
Pattern_3 1.189098 1.332098 1.102632 1.259792 1.224678 1.302165
Pattern_3 1.354525 1.305340 1.455372 1.450757 1.350327 1.257241
Pattern_3 1.314516 1.303709 1.265094 1.232418 0.923190 0.915600
Pattern_3 0.846831 0.737629 0.659021 0.583779 0.545635 0.533039
Pattern_3 0.519845 0.599097 0.639870 0.709443 0.862179 1.000214
Pattern_3 1.112701 1.284916 1.371156 1.536755 1.528667 1.704826
Pattern_3 1.603225 1.788084 1.657834 1.811109 1.754118 1.626998
Pattern_3 1.685431 1.528123 1.534457 1.212891 1.392913 1.312020
Pattern_3 1.269581 1.230716 1.282756 1.238030 1.340118 1.515398
Pattern_3 1.409640 1.341802 1.259481 1.421835 1.259142 1.283290
Pattern_3 1.325254 1.164772 1.215644 1.093538 1.063459 0.916401
Pattern_3 0.807590 0.777415 0.710240 0.579702 0.618286 0.590072
Pattern_3 0.526452 0.528579 0.525778 0.619957 0.630090 0.694364
Pattern_3 0.800844 0.975759 1.067152 1.169445 1.239490 1.240520
Pattern_3 1.289878 1.448922 1.522119 1.497930 1.546652 1.559101
Pattern_3 1.452658 1.487559 1.405787 1.450179 1.315210 1.207279
Pattern_3 1.370130 1.251756 1.333727 1.356641 1.202761 1.395192
Pattern_3 1.387842 1.318824 1.370618 1.297552 1.295716 1.143719
Pattern_3 1.209134 1.124424 0.971011 1.057323 0.874526 0.821924
Pattern_3 0.821650 0.745300 0.631412 0.594960 0.579586 0.524753
Pattern_3 0.540020 0.507581 0.532033 0.532236 0.589388 0.665872
Pattern_3 0.748955 0.800738 0.867371 0.923336 1.064802 1.102729
Pattern_3 1.276391 1.179604 1.381222 1.286544 1.276463 1.377525
Pattern_3 1.359359 1.433509 1.259816 1.368026 1.272852 1.207760
Pattern_3 1.196567 1.063417 1.078579 1.185297 1.075602 1.153602
Pattern_3 1.159087 1.267076 1.164576 1.298532 1.316878 1.357512
Pattern_3 1.302513 1.214127 1.116749 0.987804 0.861854 0.822029
Pattern_3 0.745503 0.648290 0.601605 0.515478 0.492194 0.429565
Pattern_3 0.497416 0.497428 0.549619 0.627432 0.722341 0.796686
Pattern_3 1.019662 1.132075 1.237022 1.365228 1.473468 1.510490
Pattern_3 1.686932 1.444129 1.646399 1.546673 1.598009 1.483970
Pattern_3 1.618573 1.523037 1.424621 1.223596 1.324428 1.176023
Pattern_3 1.193582 1.069278 1.090385 1.069006 1.196440 1.108837
Pattern_3 1.219846 1.294747 1.467379 1.398298 1.464383 1.443437
Pattern_3 1.338290 1.212022 1.285860 1.143267 0.998460 0.944548
Pattern_3 0.885023 0.747010 0.632576 0.567193 0.525835 0.510378
Pattern_3 0.519564 0.505522 0.607712 0.592831 0.688776 0.886619
Pattern_3 1.043020 1.130578 1.171357 1.362826 1.422271 1.443755
Pattern_3 1.485893 1.717628 1.788174 1.563292 1.688118 1.582050
Pattern_3 1.475289 1.386517 1.323859 1.327021 1.448344 1.155243
Pattern_3 1.224614 1.182794 1.163837 1.150759 1.348070 1.229446
Pattern_3 1.232856 1.359681 1.332493 1.393594 1.392653 1.387705
Pattern_3 1.459476 1.177159 1.265058 1.122721 1.033757 0.843518
Pattern_3 0.766304 0.673014 0.631857 0.578705 0.521800 0.448125
Pattern_3 0.488840 0.516410 0.563372 0.638155 0.783338 0.857336
Pattern_3 1.011259 1.184937 1.151382 1.356338 1.442339 1.328041
Pattern_3 1.474010 1.537385 1.528198 1.451439 1.681359 1.527947
Pattern_3 1.454538 1.485777 1.512196 1.328071 1.335431 1.330307
Pattern_3 1.277023 1.225424 1.114244 1.290333 1.225617 1.148961
Pattern_3 1.428628 1.336922 1.408994 1.254080 1.404206 1.350522
Pattern_3 1.408869 1.259681 1.181335 1.115654 1.054970 1.005879
Pattern_3 0.847118 0.768891 0.709867 0.554403 0.463358 0.522265
Pattern_3 0.501771 0.568516 0.579442 0.627225 0.839606 0.841850
Pattern_3 1.062123 1.082163 1.259251 1.419148 1.451139 1.531284
Pattern_3 1.699219 1.620270 1.528392 1.501813 1.460298 1.402628
Pattern_3 1.473949 1.415886 1.324138 1.254690 1.362552 1.270880
Pattern_3 1.229567 1.089720 1.205038 1.220202 1.191814 1.494816
Pattern_3 1.430443 1.336366 1.405962 1.348095 1.613250 1.445350
Pattern_3 1.322206 1.318516 1.313649 1.167842 0.972998 0.999319
Pattern_3 0.823796 0.731469 0.626677 0.589977 0.534309 0.524316
Pattern_3 0.509495 0.569497 0.655667 0.712571 0.823688 1.049566
Pattern_3 1.161470 1.370842 1.391084 1.701278 1.682800 1.826721
Pattern_3 1.860483 1.645870 2.010241 1.807325 1.547636 1.652087
Pattern_3 1.507561 1.546526 1.330286 1.417112 1.335612 1.362258
Pattern_3 1.234489 1.425007 1.256496 1.339261 1.451672 1.326712
Pattern_3 1.463350 1.355308 1.411965 1.409706 1.296263 1.298987
Pattern_3 1.178908 1.209366 1.196441 1.219128 0.991298 0.862476
Pattern_3 0.833495 0.794031 0.747049 0.664607 0.564098 0.551963
Pattern_3 0.487791 0.542888 0.552507 0.604536 0.697748 0.817960
Pattern_3 0.819512 1.061769 1.044517 1.261143 1.219670 1.362386
Pattern_3 1.410048 1.448190 1.509893 1.520532 1.450531 1.491025
Pattern_3 1.427400 1.251794 1.462068 1.472153 1.373353 1.306118
Pattern_3 1.297358 1.280989 1.294332 1.340389 1.282973 1.189568
Pattern_3 1.354554 1.384964 1.315972 1.330704 1.323040 1.201817
Pattern_3 1.115934 1.080841 1.064051 0.999958 0.897652 0.905033
Pattern_3 0.814063

Pattern_4 0.820632 0.750968 0.658696 0.704163 0.640753 0.607383
Pattern_4 0.519032 0.537090 0.616594 0.577723 0.571589 0.681682
Pattern_4 0.744762 0.780718 0.813058 0.936439 1.090491 1.034069
Pattern_4 1.070504 1.301491 1.316443 1.269053 1.362353 1.240772
Pattern_4 1.377248 1.238133 1.313989 1.228889 1.280912 1.234519
Pattern_4 1.287170 1.140355 1.128212 1.208115 1.255729 1.117422
Pattern_4 1.224536 1.184157 1.178471 1.149670 1.333238 1.238477
Pattern_4 1.219363 1.155740 1.050162 1.012168 0.921464 0.864224
Pattern_4 0.729359 0.685689 0.652769 0.593763 0.536874 0.518175
Pattern_4 0.527306 0.560303 0.645137 0.664428 0.703329 0.874970
Pattern_4 0.958361 1.060153 1.102694 1.181780 1.308263 1.554571
Pattern_4 1.461361 1.649071 1.567330 1.549136 1.555006 1.579301
Pattern_4 1.527031 1.530487 1.519634 1.349637 1.263765 1.156796
Pattern_4 1.213855 1.155622 1.179967 1.167967 1.208674 1.152936
Pattern_4 1.173227 1.398747 1.468035 1.330686 1.350765 1.278829
Pattern_4 1.294269 1.136839 1.206591 1.082638 1.053854 0.931513
Pattern_4 0.778005 0.808974 0.698690 0.538651 0.500187 0.551578
Pattern_4 0.537503 0.539417 0.634874 0.732356 0.724101 0.930732
Pattern_4 0.959724 1.007155 1.155267 1.258091 1.413387 1.307126
Pattern_4 1.460952 1.528317 1.415893 1.425533 1.523285 1.480641
Pattern_4 1.425362 1.413389 1.334969 1.295446 1.294325 1.240659
Pattern_4 1.262615 1.153790 1.255900 1.249313 1.334508 1.298939
Pattern_4 1.267144 1.277070 1.425248 1.357140 1.343496 1.257198
Pattern_4 1.321007 1.244224 1.182465 1.081831 1.027133 0.947840
Pattern_4 0.808685 0.742056 0.662162 0.604821 0.563389 0.521655
Pattern_4 0.492819 0.559086 0.654517 0.667568 0.832864 0.875298
Pattern_4 0.945127 1.049812 1.161635 1.311320 1.328657 1.430332
Pattern_4 1.498638 1.564161 1.563164 1.678082 1.601753 1.299157
Pattern_4 1.349893 1.449313 1.356675 1.321887 1.231027 1.218879
Pattern_4 1.127705 1.359639 1.224199 1.255424 1.385904 1.280797
Pattern_4 1.320136 1.348638 1.200493 1.296917 1.436911 1.220198
Pattern_4 1.283301 1.235680 1.160070 1.098870 1.069655 0.918568
Pattern_4 0.808347 0.723270 0.651871 0.606978 0.525377 0.548195
Pattern_4 0.572847 0.586050 0.618856 0.692116 0.805223 0.951307
Pattern_4 1.061734 1.021833 1.093771 1.188701 1.445977 1.449146
Pattern_4 1.449913 1.263480 1.331895 1.416466 1.453366 1.563035
Pattern_4 1.303081 1.397890 1.361498 1.299309 1.251905 1.229074
Pattern_4 1.230940 1.285082 1.133869 1.223936 1.256910 1.320135
Pattern_4 1.327329 1.264775 1.298784 1.296406 1.443014 1.136918
Pattern_4 1.292108 1.195857 1.166861 1.155003 0.975807 0.972464
Pattern_4 0.869250 0.784419 0.673701 0.640386 0.602870 0.609562
Pattern_4 0.593179 0.556944 0.609385 0.782348 0.778172 0.971130
Pattern_4 1.114374 1.308304 1.406871 1.616578 1.783519 1.682196
Pattern_4 1.656456 1.749034 1.701810 1.595925 1.784531 1.590012
Pattern_4 1.534579 1.535965 1.477195 1.369693 1.366376 1.213379
Pattern_4 1.380588 1.426893 1.244327 1.366720 1.303515 1.311309
Pattern_4 1.339769 1.356175 1.359014 1.414489 1.319464 1.247866
Pattern_4 1.205024 1.136870 1.207013 1.107362 0.993567 0.918502
Pattern_4 0.874443 0.824826 0.762825 0.697154 0.644186 0.638964
Pattern_4 0.582649 0.623939 0.620227 0.636738 0.708610 0.722157
Pattern_4 0.841275 0.971491 0.967747 1.096133 1.301035 1.302175
Pattern_4 1.346383 1.377040 1.482091 1.405498 1.521587 1.545582
Pattern_4 1.411652 1.398237 1.451462 1.422095 1.316492 1.239265
Pattern_4 1.394439 1.136966 1.228257 1.330619 1.320215 1.315654
Pattern_4 1.297625 1.239047 1.213905 1.182775 1.260780 1.200797
Pattern_4 1.063034 1.150439 1.075694 0.882989 0.874099 0.863603
Pattern_4 0.809804 0.679003 0.685930 0.706192 0.660765 0.588749
Pattern_4 0.614694 0.598835 0.597339 0.605531 0.645918 0.646999
Pattern_4 0.736107 0.744585 0.834281 0.980381 1.047750 1.061429
Pattern_4 1.154343 1.258189 1.378466 1.380284 1.308257 1.466075
Pattern_4 1.410017 1.327743 1.280581 1.319091 1.262251 1.170885
Pattern_4 1.215760 1.254642 1.279940 1.161749 1.189445 1.198943
Pattern_4 1.169105 1.267453 1.302048 1.383530 1.178832 1.216384
Pattern_4 1.235701 1.115498 1.136910 1.075145 0.928390 0.865479
Pattern_4 0.759368 0.718973 0.699849 0.586646 0.528831 0.505876
Pattern_4 0.616604 0.573090 0.640439 0.626629 0.791560 0.856041
Pattern_4 0.989557 1.074742 1.242177 1.284807 1.484396 1.530437
Pattern_4 1.482931 1.703243 1.615518 1.645803 1.653345 1.687453
Pattern_4 1.419109 1.485481 1.344774 1.248767 1.326043 1.268443
Pattern_4 1.125660 1.168570 1.134234 1.179084 1.292775 1.230889
Pattern_4 1.095287 1.301952 1.178880 1.283289 1.251601 1.270723
Pattern_4 1.319722 1.254536 1.199484 1.105239 0.981155 0.867614
Pattern_4 0.857348 0.753548 0.635467 0.605647 0.587554 0.500909
Pattern_4 0.552833 0.631532 0.633084 0.635387 0.801398 0.824688
Pattern_4 0.988015 1.080753 1.147569 1.248782 1.370412 1.387596
Pattern_4 1.524030 1.426800 1.567337 1.384265 1.384770 1.461364
Pattern_4 1.456979 1.495412 1.246367 1.330544 1.235258 1.220102
Pattern_4 1.345111 1.309769 1.226351 1.305870 1.279056 1.175699
Pattern_4 1.283395 1.425500 1.341405 1.322608 1.290693 1.351898
Pattern_4 1.364895 1.225440 1.254748 1.129340 1.118938 0.942931
Pattern_4 0.744688 0.713128 0.663122 0.565862 0.526500 0.509767
Pattern_4 0.601702 0.603674 0.600610 0.694499 0.832294 0.919161
Pattern_4 1.048790 1.075487 1.188229 1.264498 1.358883 1.453784
Pattern_4 1.467176 1.515963 1.607276 1.620061 1.494729 1.506796
Pattern_4 1.421262 1.498508 1.401231 1.370779 1.375086 1.252228
Pattern_4 1.268600 1.295279 1.278486 1.276508 1.281687 1.239002
Pattern_4 1.323470 1.275318 1.331563 1.284032 1.333581 1.306238
Pattern_4 1.270640 1.126845 1.133695 1.078213 1.062700 0.935786
Pattern_4 0.785592 0.801428 0.672489 0.559818 0.583411 0.587160
Pattern_4 0.586843 0.519701 0.666311 0.743493 0.787362 0.907343
Pattern_4 1.045663 1.149941 1.230715 1.396459 1.446978 1.389740
Pattern_4 1.648093 1.421298 1.591735 1.559690 1.584827 1.372290
Pattern_4 1.462153 1.353601 1.322801 1.289148 1.237786 1.217229
Pattern_4 1.291433 1.239909 1.147631 1.229199 1.144623 1.244159
Pattern_4 1.290092 1.263835 1.377667 1.355507 1.350340 1.430116
Pattern_4 1.256899 1.165339 1.252094 1.109100 0.928814 1.050008
Pattern_4 0.889215 0.784740 0.725021 0.683611 0.564799 0.586585
Pattern_4 0.554616 0.628562 0.692835 0.798983 0.893082 1.024564
Pattern_4 1.137864 1.361275 1.530351 1.492146 1.646499 1.627963
Pattern_4 1.750600 1.757083 1.687755 1.738852 1.610105 1.645326
Pattern_4 1.551551 1.540275 1.443714 1.455250 1.421115 1.334754
Pattern_4 1.321409 1.377709 1.222556 1.420381 1.305030 1.403376
Pattern_4 1.411564 1.366857 1.316904 1.390301 1.259027 1.252727
Pattern_4 1.330064 1.187239 1.167035 1.143613 1.025257 0.957867
Pattern_4 0.900055 0.831126 0.770733 0.711336 0.670821 0.632433