; Filename: ../Network_Originals/Hanoi_CMH.inp
; WNTR: 0.4.0
; Created: 2022-11-16 12:31:30
[TITLE]

[JUNCTIONS]
;ID                      Elevation       Demand Pattern                 
 2                                 30          247.22 Pattern_2                  ;
 3                                 30          236.11 Pattern_3                  ;
 4                                 30           36.11 Pattern_4                  ;
 5                                 30          201.39 Pattern_5                  ;
 6                                 30          279.17 Pattern_6                  ;
 7                                 30             375 Pattern_7                  ;
 8                                 30          152.78 Pattern_8                  ;
 9                                 30          145.83 Pattern_9                  ;
 10                                30          145.83 Pattern_10                 ;
 11                                30          138.89 Pattern_11                 ;
 12                                30          155.56 Pattern_12                 ;
 13                                30          261.11 Pattern_13                 ;
 14                                30          170.83 Pattern_14                 ;
 15                                30           77.78 Pattern_15                 ;
 16                                30           86.11 Pattern_16                 ;
 17                                30          240.28 Pattern_17                 ;
 18                                30          373.61 Pattern_18                 ;
 19                                30           16.67 Pattern_19                 ;
 20                                30          354.17 Pattern_20                 ;
 21                                30          258.33 Pattern_21                 ;
 22                                30          134.72 Pattern_22                 ;
 23                                30          290.28 Pattern_23                 ;
 24                                30          227.78 Pattern_24                 ;
 25                                30           47.22 Pattern_25                 ;
 26                                30             250 Pattern_26                 ;
 27                                30          102.78 Pattern_27                 ;
 28                                30           80.56 Pattern_28                 ;
 29                                30             100 Pattern_29                 ;
 30                                30             100 Pattern_30                 ;
 31                                30           29.17 Pattern_31                 ;
 32                                30          223.61 Pattern_32                 ;

[RESERVOIRS]
;ID                                   Head                  Pattern
 1                                100                            ;

[TANKS]
;ID                              Elevation           Init Level            Min Level            Max Level             Diameter           Min Volume Volume Curve         Overflow            

[PIPES]
;ID                   Node1                Node2                              Length             Diameter            Roughness           Minor Loss               Status
 1                    1                    2                                100            1016             130               0                 Open   ;
 2                    2                    3                               1350            1016             130               0                 Open   ;
 3                    3                    4                                900            1016             130               0                 Open   ;
 4                    4                    5                               1150            1016             130               0                 Open   ;
 5                    5                    6                               1450            1016             130               0                 Open   ;
 6                    6                    7                                450            1016             130               0                 Open   ;
 7                    7                    8                                850            1016             130               0                 Open   ;
 8                    8                    9                                850            1016             130               0                 Open   ;
 9                    9                    10                               800            1016             130               0                 Open   ;
 10                   10                   11                               950             762             130               0                 Open   ;
 11                   11                   12                              1200             762             130               0                 Open   ;
 12                   12                   13                              3500           609.6             130               0                 Open   ;
 13                   10                   14                               800           406.4             130               0                 Open   ;
 14                   14                   15                               500           406.4             130               0                 Open   ;
 15                   15                   16                               550           304.8             130               0                 Open   ;
 16                   17                   16                              2730           406.4             130               0                 Open   ;
 17                   17                   18                              1750             508             130               0                 Open   ;
 18                   18                   19                               800           609.6             130               0                 Open   ;
 19                   19                   3                                400           609.6             130               0                 Open   ;
 20                   3                    20                              2200            1016             130               0                 Open   ;
 21                   20                   21                              1500             508             130               0                 Open   ;
 22                   21                   22                               500           304.8             130               0                 Open   ;
 23                   20                   23                              2650            1016             130               0                 Open   ;
 24                   23                   24                              1230             762             130               0                 Open   ;
 25                   24                   25                              1300             762             130               0                 Open   ;
 26                   26                   25                               850             508             130               0                 Open   ;
 27                   27                   26                               300           304.8             130               0                 Open   ;
 28                   16                   27                               750           304.8             130               0                 Open   ;
 29                   23                   28                              1500           406.4             130               0                 Open   ;
 30                   28                   29                              2000           406.4             130               0                 Open   ;
 31                   29                   30                              1600           304.8             130               0                 Open   ;
 32                   30                   31                               150           304.8             130               0                 Open   ;
 33                   32                   31                               860           406.4             130               0                 Open   ;
 34                   25                   32                               950             508             130               0                 Open   ;

[PUMPS]
;ID                   Node1                Node2                Properties          

[VALVES]
;ID                   Node1                Node2                            Diameter Type              Setting           Minor Loss

[TAGS]
;type      name       tag       

[DEMANDS]
;ID        Demand     Pattern   

[STATUS]
;ID        Setting   

[PATTERNS]
;ID        Multipliers

Pattern_2 0.772781 0.775953 0.828537 0.673335 0.643924 0.647759
Pattern_2 0.658941 0.630060 0.652998 0.623870 0.644106 0.657315
Pattern_2 0.705846 0.801945 0.805301 0.906599 1.048797 1.067419
Pattern_2 1.116722 1.343751 1.267395 1.199648 1.262833 1.199268
Pattern_2 1.312095 1.372109 1.224587 1.247845 1.287607 1.151306
Pattern_2 1.174391 1.163044 1.197070 1.210358 1.147265 1.224542
Pattern_2 1.318206 1.274767 1.225899 1.143267 1.249973 1.290415
Pattern_2 1.205082 1.130824 1.133507 1.017709 0.959467 0.915107
Pattern_2 0.771187 0.739539 0.725242 0.568758 0.629846 0.566389
Pattern_2 0.557209 0.584660 0.632557 0.689417 0.819027 0.927271
Pattern_2 0.970953 1.083592 1.178589 1.232926 1.270389 1.389641
Pattern_2 1.502106 1.510901 1.644970 1.468377 1.471593 1.697854
Pattern_2 1.482519 1.358245 1.342605 1.319196 1.200221 1.141442
Pattern_2 1.111277 1.064124 1.016569 1.042904 1.166935 1.133813
Pattern_2 1.210179 1.284564 1.229912 1.244042 1.333754 1.265279
Pattern_2 1.293376 1.301696 1.041546 1.196950 1.063471 1.047044
Pattern_2 0.823084 0.728911 0.755735 0.617255 0.649600 0.602437
Pattern_2 0.621504 0.595865 0.705899 0.695310 0.780042 0.826041
Pattern_2 0.989561 1.018666 1.099167 1.247996 1.398000 1.396932
Pattern_2 1.508801 1.444607 1.439733 1.615676 1.480338 1.449249
Pattern_2 1.322336 1.464046 1.292579 1.337865 1.231344 1.143327
Pattern_2 1.151002 1.174629 1.114266 1.236456 1.227818 1.188703
Pattern_2 1.317928 1.217562 1.311544 1.258402 1.376699 1.294777
Pattern_2 1.365282 1.185903 1.158387 1.144342 1.058263 1.009010
Pattern_2 0.836953 0.770225 0.695021 0.632337 0.654590 0.595988
Pattern_2 0.602811 0.601329 0.600283 0.702396 0.840346 0.895667
Pattern_2 1.007262 1.110032 1.281997 1.129603 1.336925 1.475490
Pattern_2 1.454572 1.308790 1.601549 1.500477 1.535168 1.524382
Pattern_2 1.535805 1.490077 1.333759 1.400215 1.302771 1.270003
Pattern_2 1.250531 1.249280 1.283780 1.149757 1.261065 1.307562
Pattern_2 1.140523 1.341418 1.250143 1.270018 1.342155 1.181456
Pattern_2 1.333215 1.211741 1.082461 1.065040 1.010306 0.947642
Pattern_2 0.815987 0.740116 0.701169 0.651165 0.553289 0.578179
Pattern_2 0.596300 0.595962 0.651688 0.794110 0.817690 0.943318
Pattern_2 1.043983 1.153065 1.213425 1.314928 1.408136 1.375035
Pattern_2 1.481664 1.424723 1.521837 1.516504 1.467511 1.320453
Pattern_2 1.331965 1.324674 1.313507 1.238097 1.161857 1.183942
Pattern_2 1.196269 1.237081 1.234092 1.191152 1.124677 1.334105
Pattern_2 1.261870 1.322361 1.313408 1.422091 1.317612 1.294161
Pattern_2 1.267161 1.219155 1.241030 1.156034 1.051531 1.056940
Pattern_2 0.890455 0.813464 0.729789 0.686226 0.669450 0.609907
Pattern_2 0.602585 0.628256 0.749357 0.765821 0.837629 1.032777
Pattern_2 1.135971 1.102991 1.360248 1.548943 1.531639 1.725658
Pattern_2 1.608171 1.643731 1.633869 1.608851 1.586158 1.711499
Pattern_2 1.405692 1.563714 1.398925 1.454440 1.427613 1.211227
Pattern_2 1.244958 1.372193 1.298756 1.286829 1.222346 1.227579
Pattern_2 1.226982 1.302698 1.409794 1.307452 1.169858 1.132474
Pattern_2 1.199383 1.209931 1.212466 1.101009 1.058707 0.925261
Pattern_2 0.949776 0.846489 0.739614 0.756201 0.681255 0.702924
Pattern_2 0.619497 0.626506 0.681043 0.698917 0.748804 0.817513
Pattern_2 0.815975 0.910447 0.950087 1.187599 1.291278 1.225714
Pattern_2 1.289011 1.394469 1.336812 1.460364 1.472085 1.294217
Pattern_2 1.307977 1.467929 1.245176 1.174318 1.375990 1.386549
Pattern_2 1.363883 1.349308 1.310138 1.464278 1.219900 1.267893
Pattern_2 1.260284 1.279745 1.210933 1.309151 1.249963 1.104770
Pattern_2 1.008508 1.072970 1.021622 1.000687 0.909596 0.989408
Pattern_2 0.848413 0.763202 0.716308 0.751671 0.704743 0.657595
Pattern_2 0.673557 0.632899 0.670780 0.620637 0.692322 0.637132
Pattern_2 0.783957 0.789111 0.814398 0.931092 0.964981 1.067664
Pattern_2 1.086445 1.152760 1.234671 1.375190 1.356696 1.265276
Pattern_2 1.438827 1.286803 1.370322 1.342949 1.168289 1.155816
Pattern_2 1.117932 1.204535 1.169216 1.127020 1.077149 1.194687
Pattern_2 1.240499 1.240599 1.208298 1.229297 1.156530 1.199713
Pattern_2 1.182528 1.203734 1.146327 1.038744 0.979508 0.971872
Pattern_2 0.798295 0.750966 0.667062 0.637444 0.608063 0.610771
Pattern_2 0.605828 0.620499 0.674062 0.698542 0.807471 0.889634
Pattern_2 0.953420 1.096962 1.285458 1.410585 1.326772 1.509471
Pattern_2 1.491641 1.513025 1.684260 1.512991 1.554583 1.495848
Pattern_2 1.312398 1.545973 1.364722 1.360293 1.217092 1.196816
Pattern_2 1.184494 1.309935 1.196975 1.182703 1.110609 1.165890
Pattern_2 1.236680 1.322228 1.449216 1.253744 1.243790 1.308533
Pattern_2 1.219222 1.291683 1.162078 1.134332 1.173325 1.002180
Pattern_2 0.879420 0.783049 0.695890 0.684370 0.659821 0.553712
Pattern_2 0.663755 0.636372 0.717983 0.695118 0.820668 0.924043
Pattern_2 0.997877 1.108838 1.226747 1.325703 1.329614 1.419670
Pattern_2 1.518302 1.485992 1.575634 1.571631 1.460929 1.500300
Pattern_2 1.361588 1.343451 1.351297 1.346149 1.200506 1.110715
Pattern_2 1.088839 1.259726 1.196527 1.212950 1.157918 1.281178
Pattern_2 1.295625 1.308349 1.274493 1.292222 1.396710 1.309305
Pattern_2 1.383589 1.293981 1.237871 1.091416 0.994489 1.043800
Pattern_2 0.863203 0.766519 0.695640 0.671622 0.629298 0.561711
Pattern_2 0.614146 0.669962 0.767457 0.804957 0.852614 1.000242
Pattern_2 0.958385 1.143693 1.227331 1.424605 1.421719 1.515102
Pattern_2 1.492917 1.498170 1.550232 1.581013 1.553041 1.337402
Pattern_2 1.530534 1.310180 1.305473 1.379040 1.332130 1.253357
Pattern_2 1.307868 1.175969 1.272158 1.231936 1.250722 1.310473
Pattern_2 1.379374 1.221725 1.414805 1.186917 1.399200 1.304037
Pattern_2 1.305206 1.269677 1.191085 1.166335 1.097860 0.928743
Pattern_2 0.869980 0.755703 0.738670 0.605046 0.662110 0.607145
Pattern_2 0.611250 0.692756 0.649206 0.769022 0.899244 0.963868
Pattern_2 1.094443 1.155134 1.331527 1.236421 1.401535 1.516526
Pattern_2 1.438148 1.469709 1.581490 1.475565 1.444634 1.355717
Pattern_2 1.302518 1.293438 1.399083 1.211623 1.266367 1.342556
Pattern_2 1.258034 1.202699 1.229247 1.240920 1.271834 1.369868
Pattern_2 1.227684 1.332665 1.314548 1.386123 1.373038 1.308833
Pattern_2 1.305480 1.309303 1.263766 1.153534 1.090599 1.030909
Pattern_2 0.884453 0.800338 0.718742 0.617965 0.626400 0.623394
Pattern_2 0.652138 0.626812 0.711286 0.832039 1.071236 0.973440
Pattern_2 1.192897 1.156720 1.347983 1.540163 1.616561 1.508011
Pattern_2 1.658306 1.635303 1.728090 1.616377 1.672151 1.662751
Pattern_2 1.544877 1.509379 1.426492 1.312531 1.342558 1.280645
Pattern_2 1.357854 1.363007 1.364342 1.330424 1.325592 1.262283
Pattern_2 1.352934 1.344656 1.258331 1.293801 1.284043 1.359583
Pattern_2 1.358588 1.207565 1.087958 1.207560 1.078115 0.973239
Pattern_2 0.921664 0.895869 0.902533 0.844986 0.710217 0.696417
Pattern_2 0.722891 0.674887 0.724508 0.733101 0.717021 0.808026
Pattern_2 0.937643 0.950994 1.029135 1.115009 1.270688 1.270334
Pattern_2 1.359267 1.356849 1.507876 1.513693 1.494966 1.451466
Pattern_2 1.416870 1.378769 1.305051 1.289309 1.403338 1.242183
Pattern_2 1.337741 1.376997 1.329272 1.274111 1.282092 1.252675
Pattern_2 1.232562 1.313616 1.305422 1.288819 1.208268 1.210974
Pattern_2 1.061301 1.201227 1.009027 0.955944 0.987019 0.939675
Pattern_2 0.857223

Pattern_3 0.795353 0.761486 0.741589 0.698935 0.622827 0.603507
Pattern_3 0.585864 0.543593 0.536103 0.618118 0.603352 0.613353
Pattern_3 0.656219 0.728320 0.815373 0.907585 0.954925 1.113389
Pattern_3 1.079857 1.157465 1.285406 1.356419 1.318482 1.288190
Pattern_3 1.303313 1.251373 1.349114 1.257882 1.238972 1.196794
Pattern_3 1.207677 1.056759 1.185602 1.055451 1.027308 1.194063
Pattern_3 1.247235 1.267637 1.170726 1.308851 1.137352 1.266838
Pattern_3 1.218048 1.036361 1.127298 1.072929 0.977065 0.831986
Pattern_3 0.838621 0.705472 0.686247 0.564185 0.525275 0.527185
Pattern_3 0.494397 0.487676 0.573148 0.727661 0.762993 0.783298
Pattern_3 0.881040 0.952731 1.266609 1.190963 1.392240 1.410761
Pattern_3 1.514510 1.628653 1.562244 1.530782 1.459794 1.569004
Pattern_3 1.373268 1.408011 1.278733 1.267638 1.216987 1.183823
Pattern_3 1.181052 1.238145 1.067431 1.106924 1.133267 1.152563
Pattern_3 1.147028 1.276078 1.194107 1.337196 1.379456 1.358232
Pattern_3 1.416857 1.341437 1.202535 1.284619 1.045699 0.994134
Pattern_3 0.884437 0.759551 0.741508 0.649198 0.532810 0.575133
Pattern_3 0.650344 0.563495 0.622846 0.674464 0.747833 0.882504
Pattern_3 0.947791 1.077127 1.071533 1.178523 1.427995 1.309475
Pattern_3 1.351302 1.414712 1.367611 1.475584 1.533754 1.488947
Pattern_3 1.409812 1.421591 1.330196 1.150073 1.326280 1.172777
Pattern_3 1.169003 1.173019 1.171377 1.104840 1.255789 1.104043
Pattern_3 1.258758 1.259171 1.333804 1.357686 1.420946 1.321783
Pattern_3 1.424864 1.327972 1.252887 1.090469 1.016163 0.940537
Pattern_3 0.929380 0.820796 0.675405 0.597937 0.619786 0.539182
Pattern_3 0.588136 0.531329 0.656946 0.646250 0.781695 0.937522
Pattern_3 0.968882 1.103120 1.115457 1.258601 1.315717 1.426767
Pattern_3 1.398590 1.612857 1.601085 1.463780 1.517004 1.463988
Pattern_3 1.427600 1.244736 1.337442 1.208403 1.158467 1.258045
Pattern_3 1.160687 1.244302 1.284191 1.171204 1.219309 1.332875
Pattern_3 1.250171 1.361073 1.421241 1.293645 1.332636 1.319064
Pattern_3 1.378259 1.333062 1.235808 1.122989 1.059759 0.964315
Pattern_3 0.832040 0.780124 0.689525 0.696306 0.566153 0.593221
Pattern_3 0.576532 0.552368 0.640704 0.633359 0.661250 0.906435
Pattern_3 1.004215 1.093009 1.121129 1.347834 1.397218 1.406246
Pattern_3 1.402298 1.432866 1.402576 1.548308 1.280952 1.446113
Pattern_3 1.374744 1.410574 1.361937 1.266384 1.194454 1.085675
Pattern_3 1.258177 1.278277 1.235781 1.288610 1.289165 1.271713
Pattern_3 1.207729 1.378299 1.422571 1.397833 1.412456 1.381821
Pattern_3 1.381295 1.291336 1.242041 1.130246 1.146461 1.011097
Pattern_3 0.875429 0.819522 0.696969 0.691821 0.627783 0.609588
Pattern_3 0.636006 0.616163 0.636586 0.779774 0.842024 0.952916
Pattern_3 1.059577 1.126226 1.442604 1.401925 1.604967 1.519341
Pattern_3 1.666428 1.731537 1.757603 1.681203 1.764849 1.624548
Pattern_3 1.562243 1.425300 1.331704 1.397436 1.284266 1.251838
Pattern_3 1.304503 1.325204 1.303710 1.295765 1.286690 1.373332
Pattern_3 1.272217 1.295508 1.351506 1.363165 1.433285 1.273431
Pattern_3 1.282087 1.177532 1.272501 1.062227 1.072681 0.998379
Pattern_3 0.945597 0.852589 0.775433 0.760077 0.695716 0.601596
Pattern_3 0.578046 0.614529 0.585729 0.617470 0.643640 0.696895
Pattern_3 0.720729 0.955641 1.026070 0.970975 1.062108 1.252903
Pattern_3 1.317689 1.315344 1.445771 1.358751 1.340686 1.386308
Pattern_3 1.414355 1.420526 1.341143 1.422864 1.412073 1.392759
Pattern_3 1.426068 1.263223 1.304802 1.313462 1.363369 1.304605
Pattern_3 1.360283 1.315539 1.245316 1.291784 1.333582 1.152542
Pattern_3 1.188740 1.084081 1.026463 0.964251 0.974651 0.949938
Pattern_3 0.805999 0.715560 0.771328 0.746610 0.718947 0.628413
Pattern_3 0.602520 0.579668 0.528870 0.614796 0.575204 0.673118
Pattern_3 0.697567 0.778890 0.861611 0.862674 0.977219 1.106572
Pattern_3 1.098780 1.241410 1.290354 1.322960 1.367566 1.384862
Pattern_3 1.279884 1.399510 1.160639 1.266632 1.326594 1.166786
Pattern_3 1.278255 1.223771 1.164526 1.228761 1.234144 1.208298
Pattern_3 1.192851 1.225836 1.309480 1.256653 1.302148 1.285651
Pattern_3 1.261061 1.257287 1.080788 1.034472 1.080783 0.888807
Pattern_3 0.743103 0.669373 0.648538 0.618551 0.592095 0.595755
Pattern_3 0.576261 0.559780 0.620625 0.666530 0.751292 0.877281
Pattern_3 1.002522 1.109251 1.147264 1.318586 1.316323 1.371513
Pattern_3 1.464832 1.520850 1.544182 1.621724 1.751959 1.590162
Pattern_3 1.436087 1.493661 1.322715 1.204387 1.185159 1.190202
Pattern_3 1.089644 1.189378 1.097080 1.124742 1.193549 1.208143
Pattern_3 1.170104 1.201726 1.286390 1.331235 1.374744 1.363276
Pattern_3 1.315187 1.291596 1.258674 1.135681 1.092170 1.041783
Pattern_3 0.827241 0.885897 0.716859 0.635464 0.601872 0.561985
Pattern_3 0.548945 0.570541 0.592180 0.678668 0.688098 0.827094
Pattern_3 0.977587 0.953682 1.107559 1.307442 1.280203 1.517159
Pattern_3 1.362025 1.483660 1.545359 1.562341 1.489664 1.435395
Pattern_3 1.400022 1.359614 1.224136 1.264798 1.116588 1.361005
Pattern_3 1.177449 1.205184 1.095457 1.237195 1.165176 1.240689
Pattern_3 1.395867 1.385213 1.364738 1.465801 1.363247 1.428566
Pattern_3 1.391189 1.285107 1.267908 1.060111 1.099187 0.945610
Pattern_3 0.909007 0.787938 0.682074 0.620736 0.549447 0.528423
Pattern_3 0.576861 0.635661 0.715866 0.704343 0.787446 0.878360
Pattern_3 0.984049 1.142859 1.159503 1.291850 1.346094 1.291768
Pattern_3 1.429644 1.553175 1.635898 1.627717 1.577826 1.528746
Pattern_3 1.366736 1.355454 1.390376 1.287485 1.367188 1.376098
Pattern_3 1.251215 1.143209 1.250757 1.289288 1.128358 1.270043
Pattern_3 1.428085 1.446899 1.461186 1.353529 1.386044 1.373300
Pattern_3 1.307390 1.282348 1.257223 1.144841 1.010093 0.973548
Pattern_3 0.983348 0.768661 0.708184 0.675320 0.534446 0.565062
Pattern_3 0.611767 0.611636 0.593970 0.716721 0.825833 0.962607
Pattern_3 0.991656 1.205966 1.044882 1.156442 1.433193 1.400899
Pattern_3 1.529875 1.625895 1.360798 1.527746 1.447158 1.399599
Pattern_3 1.340592 1.286149 1.369403 1.319980 1.246314 1.298854
Pattern_3 1.220577 1.250432 1.207582 1.214842 1.200696 1.336021
Pattern_3 1.300432 1.454224 1.353469 1.468425 1.408329 1.416420
Pattern_3 1.319331 1.391081 1.341673 1.188939 1.123492 1.055951
Pattern_3 0.941680 0.791627 0.737777 0.669125 0.669819 0.618736
Pattern_3 0.576324 0.632221 0.702645 0.743731 0.845531 1.034646
Pattern_3 1.162358 1.218831 1.334908 1.529786 1.439921 1.648409
Pattern_3 1.741511 1.699647 1.755051 1.640725 1.619155 1.685251
Pattern_3 1.573954 1.505225 1.413838 1.427123 1.359829 1.263391
Pattern_3 1.354740 1.316061 1.287066 1.318339 1.432415 1.391045
Pattern_3 1.391466 1.253222 1.462518 1.387596 1.190112 1.347492
Pattern_3 1.229611 1.279405 1.301736 1.221014 1.099621 1.041050
Pattern_3 0.924416 0.825923 0.871170 0.730757 0.667142 0.618528
Pattern_3 0.609647 0.582855 0.589986 0.701278 0.721726 0.731982
Pattern_3 0.875197 0.862186 1.054745 1.135638 1.145785 1.389335
Pattern_3 1.266634 1.427350 1.408164 1.395781 1.483074 1.530052
Pattern_3 1.417899 1.317641 1.335428 1.357068 1.351405 1.342612
Pattern_3 1.299265 1.366927 1.311801 1.242999 1.319208 1.416631
Pattern_3 1.356147 1.464483 1.262814 1.375813 1.186632 1.184628
Pattern_3 1.201724 1.091812 1.191961 1.037688 1.032839 0.899597
Pattern_3 0.854635

Pattern_4 0.752196 0.734070 0.649580 0.654153 0.609699 0.606460
Pattern_4 0.549587 0.535652 0.546888 0.597584 0.561555 0.605124
Pattern_4 0.606431 0.725917 0.752780 0.903046 0.967660 1.046218
Pattern_4 1.152348 1.190568 1.266779 1.252993 1.386937 1.251753
Pattern_4 1.416747 1.241981 1.218696 1.252256 1.158853 1.259350
Pattern_4 1.155150 1.163459 1.210486 1.115744 1.110475 1.186759
Pattern_4 1.288350 1.166850 1.251539 1.322376 1.263950 1.230409
Pattern_4 1.202642 1.190749 1.152738 0.947571 0.881606 0.791300
Pattern_4 0.730240 0.668049 0.597489 0.529683 0.444078 0.518298
Pattern_4 0.491188 0.528711 0.596176 0.659494 0.730357 0.766873
Pattern_4 0.840058 1.117282 1.270996 1.343659 1.411340 1.608119
Pattern_4 1.511585 1.560284 1.569967 1.565139 1.579005 1.553749
Pattern_4 1.362039 1.476061 1.324039 1.295840 1.298422 1.208780
Pattern_4 1.059247 1.134609 1.195815 1.055193 1.178592 1.247831
Pattern_4 1.272627 1.271942 1.286191 1.216392 1.259417 1.309330
Pattern_4 1.213286 1.337777 1.250465 1.167708 0.926041 0.914100
Pattern_4 0.767313 0.737607 0.624989 0.598271 0.509630 0.520191
Pattern_4 0.483449 0.525842 0.555365 0.627963 0.703989 0.839093
Pattern_4 0.899934 1.095439 1.013569 1.277465 1.427355 1.510938
Pattern_4 1.456174 1.528140 1.597321 1.572687 1.576965 1.481635
Pattern_4 1.406207 1.359450 1.358865 1.257735 1.270833 1.186611
Pattern_4 1.110572 1.221739 1.250020 1.171997 1.179523 1.322058
Pattern_4 1.361173 1.303856 1.380725 1.347187 1.550189 1.411309
Pattern_4 1.330141 1.228200 1.211357 1.220491 0.998653 0.921278
Pattern_4 0.815085 0.663311 0.616897 0.551366 0.497041 0.423398
Pattern_4 0.442451 0.571129 0.586427 0.628893 0.769124 0.827055
Pattern_4 1.017428 1.095919 1.118708 1.244433 1.221873 1.388505
Pattern_4 1.619710 1.587257 1.476588 1.660409 1.553644 1.566199
Pattern_4 1.500409 1.450623 1.509382 1.253208 1.329895 1.279294
Pattern_4 1.194144 1.307763 1.205853 1.239293 1.283015 1.172401
Pattern_4 1.275067 1.258643 1.200326 1.274534 1.273823 1.356811
Pattern_4 1.198327 1.285244 1.203481 1.050558 0.947451 1.018624
Pattern_4 0.767065 0.757849 0.586759 0.535869 0.565602 0.486265
Pattern_4 0.500736 0.509548 0.575801 0.651964 0.772790 0.873507
Pattern_4 1.003256 1.184295 1.138241 1.397324 1.557870 1.547673
Pattern_4 1.456743 1.602933 1.513398 1.602850 1.469391 1.356677
Pattern_4 1.399443 1.424645 1.199769 1.329004 1.253378 1.139909
Pattern_4 1.142553 1.255382 1.272026 1.201909 1.287254 1.268050
Pattern_4 1.345595 1.308421 1.268058 1.230082 1.277810 1.267640
Pattern_4 1.419378 1.256663 1.106052 1.146198 0.996691 0.956488
Pattern_4 0.887362 0.731384 0.627052 0.551474 0.529405 0.521052
Pattern_4 0.540164 0.588636 0.651131 0.780470 0.840123 0.962360
Pattern_4 1.116522 1.262391 1.303568 1.426593 1.499184 1.719339
Pattern_4 1.681985 1.776226 1.892754 1.772758 1.725626 1.713942
Pattern_4 1.667234 1.518936 1.477127 1.379900 1.219530 1.257463
Pattern_4 1.250623 1.244857 1.325688 1.297081 1.323144 1.356671
Pattern_4 1.385525 1.405777 1.395133 1.322272 1.283840 1.228613
Pattern_4 1.244099 1.255458 1.161431 1.102322 1.026359 0.951499
Pattern_4 0.880312 0.790888 0.766689 0.665184 0.599170 0.578076
Pattern_4 0.545936 0.547803 0.569288 0.597449 0.663721 0.723974
Pattern_4 0.816713 0.850353 1.030345 0.958974 1.300702 1.318612
Pattern_4 1.309775 1.431924 1.302257 1.472703 1.569733 1.431559
Pattern_4 1.524039 1.485800 1.420415 1.354625 1.362770 1.317419
Pattern_4 1.408671 1.222001 1.312430 1.231604 1.249100 1.383872
Pattern_4 1.319099 1.280181 1.368902 1.213181 1.244374 1.100682
Pattern_4 1.192342 1.059602 1.013452 0.910653 0.908561 0.888860
Pattern_4 0.750592 0.696240 0.631981 0.675166 0.638635 0.555101
Pattern_4 0.547056 0.546416 0.597511 0.553018 0.599212 0.665503
Pattern_4 0.689009 0.770978 0.814270 0.923595 0.935011 1.081769
Pattern_4 1.019451 1.188928 1.279856 1.228476 1.445367 1.353638
Pattern_4 1.282390 1.244663 1.397022 1.313200 1.257269 1.233156
Pattern_4 1.090370 1.228042 1.186075 1.165068 1.228916 1.298805
Pattern_4 1.266878 1.195349 1.203724 1.253246 1.322665 1.188682
Pattern_4 1.185896 1.155716 1.099425 0.953346 0.878401 0.764303
Pattern_4 0.761073 0.658629 0.577334 0.602861 0.526241 0.450084
Pattern_4 0.477197 0.521479 0.558714 0.608765 0.683848 0.898371
Pattern_4 0.929437 1.148645 1.139087 1.239563 1.417649 1.414172
Pattern_4 1.618613 1.675807 1.587143 1.694888 1.497306 1.528980
Pattern_4 1.539581 1.414302 1.491808 1.358481 1.270386 1.214863
Pattern_4 1.143395 1.211051 1.227221 1.174299 1.187310 1.151694
Pattern_4 1.277000 1.328401 1.285238 1.356625 1.324532 1.317621
Pattern_4 1.249172 1.296421 1.215451 1.085331 1.002352 0.940921
Pattern_4 0.796488 0.652232 0.606192 0.520244 0.522944 0.530106
Pattern_4 0.503780 0.521475 0.591720 0.688213 0.772571 0.807579
Pattern_4 1.033855 1.067415 1.053494 1.405591 1.365313 1.536607
Pattern_4 1.627263 1.599899 1.558863 1.492411 1.513978 1.493760
Pattern_4 1.317642 1.400461 1.373782 1.372986 1.178016 1.241641
Pattern_4 1.130150 1.247011 1.165701 1.322478 1.172496 1.352185
Pattern_4 1.278668 1.418863 1.406704 1.336397 1.289812 1.335033
Pattern_4 1.278026 1.277090 1.141260 1.178549 0.904659 0.854249
Pattern_4 0.777779 0.758506 0.617594 0.561144 0.522659 0.471871
Pattern_4 0.529950 0.556741 0.612587 0.704847 0.798524 0.835132
Pattern_4 0.908066 1.169589 1.103955 1.386991 1.404419 1.475627
Pattern_4 1.459451 1.554537 1.650319 1.535703 1.367249 1.449332
Pattern_4 1.627295 1.554688 1.455667 1.342230 1.372751 1.349906
Pattern_4 1.263699 1.361610 1.246483 1.352624 1.424465 1.308182
Pattern_4 1.240141 1.292841 1.475412 1.406401 1.303773 1.430608
Pattern_4 1.327372 1.257900 1.251015 1.129073 1.002024 0.947033
Pattern_4 0.832652 0.706114 0.657186 0.567315 0.507211 0.472826
Pattern_4 0.525574 0.589200 0.610703 0.667156 0.821941 0.828628
Pattern_4 1.029116 1.213805 1.186128 1.399364 1.397134 1.538090
Pattern_4 1.451351 1.545608 1.445602 1.525631 1.530590 1.499122
Pattern_4 1.394018 1.528265 1.335146 1.419381 1.172430 1.178406
Pattern_4 1.167085 1.276882 1.189801 1.223693 1.112110 1.404920
Pattern_4 1.344295 1.406519 1.341393 1.345575 1.382189 1.316083
Pattern_4 1.358830 1.277993 1.319117 1.225793 1.139633 1.001548
Pattern_4 0.869970 0.722428 0.667444 0.586548 0.560388 0.496537
Pattern_4 0.546374 0.604847 0.658306 0.738781 0.866635 1.033631
Pattern_4 1.144923 1.171758 1.354973 1.420472 1.477501 1.706429
Pattern_4 1.682442 1.696813 1.553028 1.569504 1.605579 1.574292
Pattern_4 1.625266 1.478434 1.483848 1.292554 1.386552 1.452806
Pattern_4 1.376031 1.242859 1.307992 1.239823 1.253133 1.246798
Pattern_4 1.459674 1.322587 1.369717 1.402400 1.291913 1.359180
Pattern_4 1.324614 1.340344 1.182767 1.155567 1.043515 0.978295
Pattern_4 0.898674 0.757012 0.753671 0.681221 0.603594 0.604693